
 ===================================================
  XFOIL Version 6.99
  Copyright (C) 2000   Mark Drela, Harold Youngren

  This software comes with ABSOLUTELY NO WARRANTY,
    subject to the GNU General Public License.

  Caveat computor
 ===================================================

 File  xfoil.def  not found

   QUIT    Exit program

  .OPER    Direct operating point(s)
  .MDES    Complex mapping design routine
  .QDES    Surface speed design routine
  .GDES    Geometry design routine

   SAVE f  Write airfoil to labeled coordinate file
   PSAV f  Write airfoil to plain coordinate file
   ISAV f  Write airfoil to ISES coordinate file
   MSAV f  Write airfoil to MSES coordinate file
   REVE    Reverse written-airfoil node ordering
   DELI i  Change written-airfoil file delimiters

   LOAD f  Read buffer airfoil from coordinate file
   NACA i  Set NACA 4,5-digit airfoil and buffer airfoil
   INTE    Set buffer airfoil by interpolating two airfoils
   NORM    Buffer airfoil normalization toggle
   HALF    Halve the number of points in buffer airfoil
   XYCM rr Change CM reference location, currently  0.25000 0.00000

   BEND    Display structural properties of current airfoil

   PCOP    Set current-airfoil panel nodes directly from buffer airfoil points
   PANE    Set current-airfoil panel nodes ( 160 ) based on curvature
  .PPAR    Show/change paneling

  .PLOP    Plotting options

   WDEF f  Write  current-settings file
   RDEF f  Reread current-settings file
   NAME s  Specify new airfoil name
   NINC    Increment name version number

   Z       Zoom    | (available in all menus)
   U       Unzoom  | 

 XFOIL   c>  
 XFOIL   c>  
 Plain airfoil file

Enter airfoil name   s>  
 Number of input coordinate points: 203
 Counterclockwise ordering
 Max thickness =     0.080036  at x =   0.298
 Max camber    =     0.019680  at x =   0.406

  LE  x,y  =  -0.00003   0.00054  |   Chord =   1.00003
  TE  x,y  =   1.00000   0.00000  |

 Current airfoil nodes set from buffer airfoil nodes ( 203 )

 WARNING: Poor input coordinate distribution
          Excessive panel angle   82.7  at i = 102
          Repaneling with PANE and/or PPAR suggested
           (doing GDES,CADD before repaneling _may_
            improve excessively coarse LE spacing

 XFOIL   c>   ...............................................

  G raphics-enable flag:        T
  S ize of plot object          10.00"
  A spect ratio of plot object   0.5500
  P age dimensions              11.00 x  8.50"
  M argins from page edges       0.00",  0.00"
  F ont size (relative)          0.0150
  W indow/screen size fraction   0.8000
  B lowup input method:        Cursor    
  O rientation of plot:        Landscape 
  C olor PostScript output?     T
  L ine colors for top,bottom    8  3

      Option, Value   (or <Return>)    c>   ...............................................

  G raphics-enable flag:        F
  S ize of plot object          10.00"
  A spect ratio of plot object   0.5500
  P age dimensions              11.00 x  8.50"
  M argins from page edges       0.00",  0.00"
  F ont size (relative)          0.0150
  W indow/screen size fraction   0.8000
  B lowup input method:        Cursor    
  O rientation of plot:        Landscape 
  C olor PostScript output?     T
  L ine colors for top,bottom    8  3

      Option, Value   (or <Return>)    c>  
 XFOIL   c>  
.OPERi   c>  
 M  =    0.0000
 Re =  0.2274E+07

.OPERv   c>  
.OPERv   c>  
 Polar  1 newly created for accumulation
 Airfoil archived with polar:                                                 

Enter  polar save filename  OR  <return> for no file   s>  
 New polar save file available

Enter  polar dump filename  OR  <return> for no file   s>  
 New polar dump file available

 Polar accumulation enabled

.OPERva   c>   Calculating unit vorticity distributions ...
 Calculating wake trajectory ...
 Calculating source influence matrix ...

 Solving BL system ...

 Initializing BL ...
    side            1  ...
 MRCHUE: Inverse mode at   3     Hk =  20.099
 MRCHUE: Inverse mode at   4     Hk =   2.500
    side            2  ...
 MRCHUE: Inverse mode at   4     Hk =  12.779
 MRCHUE: Inverse mode at   5     Hk =   2.500

 Side 1  free  transition at x/c =  0.0192    4
 Side 2  free  transition at x/c =  0.0223    5

   1   rms: 0.2454E+00   max: -.2537E+01   D at    4  1   RLX: 0.197
       a = -2.000      CL =  0.0177
      Cm = -0.0530     CD =  0.00905   =>   CDf =  0.00743    CDp =  0.00163

 Side 1  free  transition at x/c =  0.0189    4
 Side 2  free  transition at x/c =  0.0226    5

   2   rms: 0.9836E-01   max: -.2100E+01   D at    4  1   RLX: 0.238
       a = -2.000      CL =  0.0179
      Cm = -0.0524     CD =  0.00900   =>   CDf =  0.00740    CDp =  0.00160

 Side 1  free  transition at x/c =  0.0191    4
 Side 2  free  transition at x/c =  0.0230    5

   3   rms: 0.8079E-01   max: -.1420E+01   D at    3  1   RLX: 0.352
       a = -2.000      CL =  0.0160
      Cm = -0.0514     CD =  0.00900   =>   CDf =  0.00742    CDp =  0.00158

 Side 1  free  transition at x/c =  0.0266    4
 Side 2  free  transition at x/c =  0.0235    5

   4   rms: 0.1082E+00   max: -.3158E+01   C at    4  1   RLX: 0.158
       a = -2.000      CL =  0.0150
      Cm = -0.0510     CD =  0.00899   =>   CDf =  0.00742    CDp =  0.00158

 Side 1  free  transition at x/c =  0.0277    4
 Side 2  free  transition at x/c =  0.0237    5

   5   rms: 0.9736E-01   max: -.2841E+01   C at    4  1   RLX: 0.176
       a = -2.000      CL =  0.0138
      Cm = -0.0506     CD =  0.00899   =>   CDf =  0.00741    CDp =  0.00158

 Side 1  free  transition at x/c =  0.3249   34
 Side 2  free  transition at x/c =  0.0238    5

   6   rms: 0.3639E+00   max: -.9701E+01   C at   34  1   RLX: 0.052
       a = -2.000      CL =  0.0143
      Cm = -0.0506     CD =  0.00804   =>   CDf =  0.00664    CDp =  0.00140

 Side 1  free  transition at x/c =  0.3353   35
 Side 2  free  transition at x/c =  0.0239    5

   7   rms: 0.7850E+00   max: -.2020E+02   C at   35  1   RLX: 0.025
       a = -2.000      CL =  0.0146
      Cm = -0.0506     CD =  0.00800   =>   CDf =  0.00660    CDp =  0.00140

 Side 1  free  transition at x/c =  0.3454   36
 Side 2  free  transition at x/c =  0.0239    5

   8   rms: 0.1532E+01   max: -.3965E+02   C at   36  1   RLX: 0.013
       a = -2.000      CL =  0.0149
      Cm = -0.0506     CD =  0.00796   =>   CDf =  0.00657    CDp =  0.00139

 Side 1  free  transition at x/c =  0.3514   37
 Side 2  free  transition at x/c =  0.0239    5

   9   rms: 0.1415E+01   max: -.3774E+02   C at   37  1   RLX: 0.013
       a = -2.000      CL =  0.0152
      Cm = -0.0507     CD =  0.00793   =>   CDf =  0.00655    CDp =  0.00138

 Side 1  free  transition at x/c =  0.3588   38
 Side 2  free  transition at x/c =  0.0239    5

  10   rms: 0.1552E+01   max: -.4085E+02   C at   38  1   RLX: 0.012
       a = -2.000      CL =  0.0155
      Cm = -0.0507     CD =  0.00790   =>   CDf =  0.00653    CDp =  0.00137

 Side 1  free  transition at x/c =  0.3565   38
 Side 2  free  transition at x/c =  0.0239    5

  11   rms: 0.3999E+00   max: -.9945E+01   C at   38  1   RLX: 0.050
       a = -2.000      CL =  0.0158
      Cm = -0.0507     CD =  0.00790   =>   CDf =  0.00654    CDp =  0.00136

 Side 1  free  transition at x/c =  0.3630   38
 Side 2  free  transition at x/c =  0.0240    5

  12   rms: 0.6033E+00   max: -.1594E+02   C at   38  1   RLX: 0.031
       a = -2.000      CL =  0.0159
      Cm = -0.0507     CD =  0.00789   =>   CDf =  0.00651    CDp =  0.00137

 Side 1  free  transition at x/c =  0.3713   39
 Side 2  free  transition at x/c =  0.0240    5

  13   rms: 0.1045E+01   max: -.2768E+02   C at   39  1   RLX: 0.018
       a = -2.000      CL =  0.0162
      Cm = -0.0508     CD =  0.00785   =>   CDf =  0.00648    CDp =  0.00137

 Side 1  free  transition at x/c =  0.3777   40
 Side 2  free  transition at x/c =  0.0240    5

  14   rms: 0.7800E+00   max: -.2009E+02   C at   40  1   RLX: 0.025
       a = -2.000      CL =  0.0166
      Cm = -0.0508     CD =  0.00782   =>   CDf =  0.00646    CDp =  0.00135

 Side 1  free  transition at x/c =  0.3751   39
 Side 2  free  transition at x/c =  0.0240    5

  15   rms: 0.1723E+00   max: -.4443E+01   C at   39  1   RLX: 0.113
       a = -2.000      CL =  0.0165
      Cm = -0.0507     CD =  0.00784   =>   CDf =  0.00647    CDp =  0.00136

 Side 1  free  transition at x/c =  0.3873   41
 Side 2  free  transition at x/c =  0.0241    5

  16   rms: 0.1746E+00   max: -.4375E+01   C at   41  1   RLX: 0.114
       a = -2.000      CL =  0.0170
      Cm = -0.0507     CD =  0.00778   =>   CDf =  0.00643    CDp =  0.00134

 Side 1  free  transition at x/c =  0.3946   41
 Side 2  free  transition at x/c =  0.0242    5

  17   rms: 0.1893E+00   max: -.4896E+01   C at   41  1   RLX: 0.102
       a = -2.000      CL =  0.0172
      Cm = -0.0506     CD =  0.00776   =>   CDf =  0.00641    CDp =  0.00135

 Side 1  free  transition at x/c =  0.4004   42
 Side 2  free  transition at x/c =  0.0242    5

  18   rms: 0.1185E+00   max: -.3070E+01   C at   42  1   RLX: 0.163
       a = -2.000      CL =  0.0174
      Cm = -0.0505     CD =  0.00773   =>   CDf =  0.00639    CDp =  0.00134

 Side 1  free  transition at x/c =  0.4061   43
 Side 2  free  transition at x/c =  0.0243    5

  19   rms: 0.8126E-01   max: -.1885E+01   C at   43  1   RLX: 0.265
       a = -2.000      CL =  0.0177
      Cm = -0.0504     CD =  0.00769   =>   CDf =  0.00637    CDp =  0.00133

 Side 1  free  transition at x/c =  0.4136   43
 Side 2  free  transition at x/c =  0.0244    5

  20   rms: 0.7158E-01   max: -.1851E+01   C at   43  1   RLX: 0.270
       a = -2.000      CL =  0.0178
      Cm = -0.0503     CD =  0.00768   =>   CDf =  0.00634    CDp =  0.00134

 Side 1  free  transition at x/c =  0.4194   44
 Side 2  free  transition at x/c =  0.0245    5

  21   rms: 0.4433E-01   max: -.1132E+01   C at   44  1   RLX: 0.442
       a = -2.000      CL =  0.0180
      Cm = -0.0502     CD =  0.00765   =>   CDf =  0.00632    CDp =  0.00133

 Side 1  free  transition at x/c =  0.4268   45
 Side 2  free  transition at x/c =  0.0246    5

  22   rms: 0.2986E-01   max: -.7265E+00   C at   45  1   RLX: 0.688
       a = -2.000      CL =  0.0182
      Cm = -0.0501     CD =  0.00761   =>   CDf =  0.00629    CDp =  0.00132

 Side 1  free  transition at x/c =  0.4336   45
 Side 2  free  transition at x/c =  0.0247    5

  23   rms: 0.1388E-01   max: -.3586E+00   C at   45  1
       a = -2.000      CL =  0.0183
      Cm = -0.0501     CD =  0.00761   =>   CDf =  0.00627    CDp =  0.00134

 Side 1  free  transition at x/c =  0.4383   46
 Side 2  free  transition at x/c =  0.0248    5

  24   rms: 0.3682E-03   max: 0.6859E-02   C at   46  1
       a = -2.000      CL =  0.0183
      Cm = -0.0501     CD =  0.00761   =>   CDf =  0.00625    CDp =  0.00135

 Side 1  free  transition at x/c =  0.4382   46
 Side 2  free  transition at x/c =  0.0248    5

  25   rms: 0.3990E-05   max: -.9822E-04   C at   46  1
       a = -2.000      CL =  0.0183
      Cm = -0.0501     CD =  0.00761   =>   CDf =  0.00625    CDp =  0.00135
      9.000    4.1355   0.007606   0.000072   0.000076   0.000004    0.4382     #

 Point added to stored polar  1
 Point written to save file  /home/nesd/tmp/dynamicas/python/users/a/QWD/r_mi
 Point written to dump file /home/nesd/tmp/dynamicas/python/users/a/QWD/r_mi
 Calculating wake trajectory ...
 Calculating source influence matrix ...

 Solving BL system ...

 Side 1  free  transition at x/c =  0.4382   46
 Side 2  free  transition at x/c =  0.0248    5

   1   rms: 0.3934E+00   max: 0.9520E+01   C at   46  1   RLX: 0.158
       a = -1.000      CL =  0.0343
      Cm = -0.0500     CD =  0.00763   =>   CDf =  0.00625    CDp =  0.00138

 Side 1  free  transition at x/c =  0.4143   43
 Side 2  free  transition at x/c =  0.0245    5

   2   rms: 0.2950E+00   max: 0.7281E+01   C at   43  1   RLX: 0.206
       a = -1.000      CL =  0.0522
      Cm = -0.0498     CD =  0.00763   =>   CDf =  0.00634    CDp =  0.00129

 Side 1  free  transition at x/c =  0.3849   40
 Side 2  free  transition at x/c =  0.0243    5

   3   rms: 0.2774E+00   max: 0.7005E+01   C at   40  1   RLX: 0.214
       a = -1.000      CL =  0.0667
      Cm = -0.0497     CD =  0.00770   =>   CDf =  0.00644    CDp =  0.00126

 Side 1  free  transition at x/c =  0.3568   38
 Side 2  free  transition at x/c =  0.0241    5

   4   rms: 0.2456E+00   max: 0.5834E+01   C at   38  1   RLX: 0.257
       a = -1.000      CL =  0.0798
      Cm = -0.0495     CD =  0.00782   =>   CDf =  0.00654    CDp =  0.00128

 Side 1  free  transition at x/c =  0.3303   35
 Side 2  free  transition at x/c =  0.0239    5

   5   rms: 0.2404E+00   max: 0.6284E+01   C at   35  1   RLX: 0.239
       a = -1.000      CL =  0.0890
      Cm = -0.0494     CD =  0.00786   =>   CDf =  0.00663    CDp =  0.00124

 Side 1  free  transition at x/c =  0.3112   33
 Side 2  free  transition at x/c =  0.0238    5

   6   rms: 0.1785E+00   max: 0.4718E+01   C at   33  1   RLX: 0.318
       a = -1.000      CL =  0.0984
      Cm = -0.0493     CD =  0.00791   =>   CDf =  0.00669    CDp =  0.00122

 Side 1  free  transition at x/c =  0.2817   30
 Side 2  free  transition at x/c =  0.0237    5

   7   rms: 0.2605E+00   max: 0.7060E+01   C at   30  1   RLX: 0.212
       a = -1.000      CL =  0.1022
      Cm = -0.0492     CD =  0.00802   =>   CDf =  0.00679    CDp =  0.00123

 Side 1  free  transition at x/c =  0.0625    8
 Side 2  free  transition at x/c =  0.0236    5

   8   rms: 0.7582E+00   max: 0.2169E+02   C at    8  1   RLX: 0.069
       a = -1.000      CL =  0.1019
      Cm = -0.0491     CD =  0.00878   =>   CDf =  0.00742    CDp =  0.00136

 Side 1  free  transition at x/c =  0.0516    7
 Side 2  free  transition at x/c =  0.0236    5

   9   rms: 0.4354E+00   max: 0.1178E+02   C at    7  1   RLX: 0.127
       a = -1.000      CL =  0.1030
      Cm = -0.0489     CD =  0.00881   =>   CDf =  0.00744    CDp =  0.00137

 Side 1  free  transition at x/c =  0.0399    6
 Side 2  free  transition at x/c =  0.0236    5

  10   rms: 0.1703E+00   max: 0.3430E+01   C at    6  1   RLX: 0.321
       a = -1.000      CL =  0.1057
      Cm = -0.0486     CD =  0.00886   =>   CDf =  0.00747    CDp =  0.00139

 Side 1  free  transition at x/c =  0.0299    5
 Side 2  free  transition at x/c =  0.0236    5

  11   rms: 0.3072E-01   max: 0.5773E+00   C at    5  1
       a = -1.000      CL =  0.1124
      Cm = -0.0480     CD =  0.00884   =>   CDf =  0.00749    CDp =  0.00136

 Side 1  free  transition at x/c =  0.0278    4
 Side 2  free  transition at x/c =  0.0235    5

  12   rms: 0.1197E-02   max: 0.1473E-01   D at    6  1
       a = -1.000      CL =  0.1126
      Cm = -0.0481     CD =  0.00882   =>   CDf =  0.00750    CDp =  0.00132

 Side 1  free  transition at x/c =  0.0277    4
 Side 2  free  transition at x/c =  0.0235    5

  13   rms: 0.2368E-05   max: 0.4749E-04   C at    4  1
       a = -1.000      CL =  0.1126
      Cm = -0.0481     CD =  0.00882   =>   CDf =  0.00750    CDp =  0.00132
      9.000    4.5691   0.008819   0.000080   0.000095   0.000015    0.0277     #

 Point added to stored polar  1
 Point written to save file  /home/nesd/tmp/dynamicas/python/users/a/QWD/r_mi
 Point written to dump file /home/nesd/tmp/dynamicas/python/users/a/QWD/r_mi
 Calculating wake trajectory ...
 Calculating source influence matrix ...

 Solving BL system ...

 Side 1  free  transition at x/c =  0.0277    4
 Side 2  free  transition at x/c =  0.0235    5

   1   rms: 0.1362E+00   max: 0.2591E+01   C at    4  1   RLX: 0.579
       a =  0.000      CL =  0.1739
      Cm = -0.0480     CD =  0.00877   =>   CDf =  0.00750    CDp =  0.00126

 Side 1  free  transition at x/c =  0.0255    4
 Side 2  free  transition at x/c =  0.0229    5

   2   rms: 0.5292E-01   max: 0.9126E+00   C at    4  1
       a =  0.000      CL =  0.2187
      Cm = -0.0480     CD =  0.00877   =>   CDf =  0.00756    CDp =  0.00121

 Side 1  free  transition at x/c =  0.0223    4
 Side 2  free  transition at x/c =  0.0225    5

   3   rms: 0.1151E-01   max: 0.2552E+00   C at    4  1
       a =  0.000      CL =  0.2187
      Cm = -0.0480     CD =  0.00878   =>   CDf =  0.00760    CDp =  0.00119

 Side 1  free  transition at x/c =  0.0202    4
 Side 2  free  transition at x/c =  0.0225    5

   4   rms: 0.1945E-01   max: -.4250E+00   D at    3  1
       a =  0.000      CL =  0.2187
      Cm = -0.0480     CD =  0.00878   =>   CDf =  0.00760    CDp =  0.00118

 Side 1  free  transition at x/c =  0.2495   27
 Side 2  free  transition at x/c =  0.0225    5

   5   rms: 0.6278E+00   max: 0.1685E+02   C at   27  1   RLX: 0.089
       a =  0.000      CL =  0.2194
      Cm = -0.0479     CD =  0.00796   =>   CDf =  0.00688    CDp =  0.00108

 Side 1  free  transition at x/c =  0.2359   25
 Side 2  free  transition at x/c =  0.0225    5

   6   rms: 0.2870E+00   max: 0.7766E+01   C at   25  1   RLX: 0.193
       a =  0.000      CL =  0.2201
      Cm = -0.0481     CD =  0.00800   =>   CDf =  0.00693    CDp =  0.00106

 Side 1  free  transition at x/c =  0.0277    4
 Side 2  free  transition at x/c =  0.0225    5

   7   rms: 0.6958E-01   max: 0.2027E+01   C at    4  1   RLX: 0.740
       a =  0.000      CL =  0.2188
      Cm = -0.0481     CD =  0.00879   =>   CDf =  0.00756    CDp =  0.00123

 Side 1  free  transition at x/c =  0.0252    4
 Side 2  free  transition at x/c =  0.0225    5

   8   rms: 0.2695E-01   max: 0.7121E+00   C at    4  1
       a =  0.000      CL =  0.2187
      Cm = -0.0480     CD =  0.00879   =>   CDf =  0.00758    CDp =  0.00120

 Side 1  free  transition at x/c =  0.0222    4
 Side 2  free  transition at x/c =  0.0225    5

   9   rms: 0.1152E-01   max: 0.2470E+00   C at    4  1
       a =  0.000      CL =  0.2187
      Cm = -0.0480     CD =  0.00878   =>   CDf =  0.00760    CDp =  0.00119

 Side 1  free  transition at x/c =  0.0201    4
 Side 2  free  transition at x/c =  0.0225    5

  10   rms: 0.1711E-01   max: -.3777E+00   D at    3  1
       a =  0.000      CL =  0.2187
      Cm = -0.0480     CD =  0.00878   =>   CDf =  0.00760    CDp =  0.00118

 Side 1  free  transition at x/c =  0.0666    8
 Side 2  free  transition at x/c =  0.0225    5

  11   rms: 0.1307E+02   max: 0.3887E+03   C at    8  1   RLX: 0.004
       a =  0.000      CL =  0.2189
      Cm = -0.0479     CD =  0.00867   =>   CDf =  0.00746    CDp =  0.00121

 Side 1  free  transition at x/c =  0.0608    8
 Side 2  free  transition at x/c =  0.0225    5

  12   rms: 0.4485E+01   max: 0.1153E+03   C at    8  1   RLX: 0.013
       a =  0.000      CL =  0.2184
      Cm = -0.0478     CD =  0.00874   =>   CDf =  0.00748    CDp =  0.00127

 Side 1  free  transition at x/c =  0.0470    6
 Side 2  free  transition at x/c =  0.0225    5

  13   rms: 0.8196E+01   max: 0.2457E+03   C at    6  1   RLX: 0.006
       a =  0.000      CL =  0.2183
      Cm = -0.0478     CD =  0.00873   =>   CDf =  0.00751    CDp =  0.00122

 Side 1  free  transition at x/c =  0.0423    6
 Side 2  free  transition at x/c =  0.0225    5

  14   rms: 0.2194E+01   max: 0.5877E+02   C at    6  1   RLX: 0.026
       a =  0.000      CL =  0.2179
      Cm = -0.0478     CD =  0.00878   =>   CDf =  0.00752    CDp =  0.00126

 Side 1  free  transition at x/c =  0.0322    5
 Side 2  free  transition at x/c =  0.0225    5

  15   rms: 0.8037E+00   max: 0.2104E+02   C at    5  1   RLX: 0.071
       a =  0.000      CL =  0.2176
      Cm = -0.0477     CD =  0.00881   =>   CDf =  0.00754    CDp =  0.00127

 Side 1  free  transition at x/c =  0.0278    4
 Side 2  free  transition at x/c =  0.0225    5

  16   rms: 0.7113E-01   max: 0.2073E+01   C at    4  1   RLX: 0.724
       a =  0.000      CL =  0.2183
      Cm = -0.0479     CD =  0.00879   =>   CDf =  0.00756    CDp =  0.00123

 Side 1  free  transition at x/c =  0.0253    4
 Side 2  free  transition at x/c =  0.0225    5

  17   rms: 0.2561E-01   max: 0.6867E+00   C at    4  1
       a =  0.000      CL =  0.2187
      Cm = -0.0480     CD =  0.00879   =>   CDf =  0.00758    CDp =  0.00120

 Side 1  free  transition at x/c =  0.0223    4
 Side 2  free  transition at x/c =  0.0225    5

  18   rms: 0.1152E-01   max: 0.2525E+00   C at    4  1
       a =  0.000      CL =  0.2187
      Cm = -0.0480     CD =  0.00878   =>   CDf =  0.00760    CDp =  0.00119

 Side 1  free  transition at x/c =  0.0202    4
 Side 2  free  transition at x/c =  0.0225    5

  19   rms: 0.1845E-01   max: -.4047E+00   D at    3  1
       a =  0.000      CL =  0.2187
      Cm = -0.0480     CD =  0.00878   =>   CDf =  0.00760    CDp =  0.00118

 Side 1  free  transition at x/c =  0.2355   25
 Side 2  free  transition at x/c =  0.0225    5

  20   rms: 0.4967E+00   max: 0.1361E+02   C at   25  1   RLX: 0.110
       a =  0.000      CL =  0.2195
      Cm = -0.0480     CD =  0.00800   =>   CDf =  0.00693    CDp =  0.00107

 Side 1  free  transition at x/c =  0.0612    8
 Side 2  free  transition at x/c =  0.0225    5

  21   rms: 0.4671E+01   max: 0.1232E+03   C at    8  1   RLX: 0.012
       a =  0.000      CL =  0.2183
      Cm = -0.0480     CD =  0.00873   =>   CDf =  0.00747    CDp =  0.00126

 Side 1  free  transition at x/c =  0.0478    7
 Side 2  free  transition at x/c =  0.0225    5

  22   rms: 0.1764E+01   max: -.2527E+02   D at    7  1   RLX: 0.020
       a =  0.000      CL =  0.2178
      Cm = -0.0479     CD =  0.00877   =>   CDf =  0.00751    CDp =  0.00127

 Side 1  free  transition at x/c =  0.0360    5
 Side 2  free  transition at x/c =  0.0225    5

  23   rms: 0.3443E+01   max: 0.1037E+03   C at    5  1   RLX: 0.014
       a =  0.000      CL =  0.2178
      Cm = -0.0479     CD =  0.00876   =>   CDf =  0.00754    CDp =  0.00122

 Side 1  free  transition at x/c =  0.0317    5
 Side 2  free  transition at x/c =  0.0225    5

  24   rms: 0.6976E+00   max: 0.1743E+02   C at    5  1   RLX: 0.086
       a =  0.000      CL =  0.2174
      Cm = -0.0478     CD =  0.00882   =>   CDf =  0.00754    CDp =  0.00128

 Side 1  free  transition at x/c =  0.0278    4
 Side 2  free  transition at x/c =  0.0225    5

  25   rms: 0.7070E-01   max: 0.2064E+01   C at    4  1   RLX: 0.727
       a =  0.000      CL =  0.2183
      Cm = -0.0480     CD =  0.00879   =>   CDf =  0.00756    CDp =  0.00123

 Side 1  free  transition at x/c =  0.0253    4
 Side 2  free  transition at x/c =  0.0225    5

  26   rms: 0.2666E-01   max: 0.7175E+00   C at    4  1
       a =  0.000      CL =  0.2187
      Cm = -0.0480     CD =  0.00879   =>   CDf =  0.00758    CDp =  0.00120

 Side 1  free  transition at x/c =  0.0222    4
 Side 2  free  transition at x/c =  0.0225    5

  27   rms: 0.1153E-01   max: 0.2497E+00   C at    4  1
       a =  0.000      CL =  0.2187
      Cm = -0.0480     CD =  0.00878   =>   CDf =  0.00760    CDp =  0.00119

 Side 1  free  transition at x/c =  0.0202    4
 Side 2  free  transition at x/c =  0.0225    5

  28   rms: 0.1769E-01   max: -.3893E+00   D at    3  1
       a =  0.000      CL =  0.2187
      Cm = -0.0480     CD =  0.00878   =>   CDf =  0.00760    CDp =  0.00118

 Side 1  free  transition at x/c =  0.2228   24
 Side 2  free  transition at x/c =  0.0225    5

  29   rms: 0.8250E+00   max: 0.2274E+02   C at   24  1   RLX: 0.066
       a =  0.000      CL =  0.2194
      Cm = -0.0479     CD =  0.00805   =>   CDf =  0.00697    CDp =  0.00108

 Side 1  free  transition at x/c =  0.0447    6
 Side 2  free  transition at x/c =  0.0225    5

  30   rms: 0.3862E+01   max: 0.1140E+03   C at    6  1   RLX: 0.013
       a =  0.000      CL =  0.2185
      Cm = -0.0480     CD =  0.00874   =>   CDf =  0.00752    CDp =  0.00123

 Side 1  free  transition at x/c =  0.0366    5
 Side 2  free  transition at x/c =  0.0225    5

  31   rms: 0.4658E+01   max: 0.1403E+03   C at    5  1   RLX: 0.011
       a =  0.000      CL =  0.2184
      Cm = -0.0480     CD =  0.00875   =>   CDf =  0.00753    CDp =  0.00122

 Side 1  free  transition at x/c =  0.0329    5
 Side 2  free  transition at x/c =  0.0225    5

  32   rms: 0.9958E+00   max: 0.2750E+02   C at    5  1   RLX: 0.055
       a =  0.000      CL =  0.2181
      Cm = -0.0479     CD =  0.00880   =>   CDf =  0.00754    CDp =  0.00126

 Side 1  free  transition at x/c =  0.0279    4
 Side 2  free  transition at x/c =  0.0225    5

  33   rms: 0.7200E-01   max: 0.2101E+01   C at    4  1   RLX: 0.714
       a =  0.000      CL =  0.2185
      Cm = -0.0480     CD =  0.00879   =>   CDf =  0.00755    CDp =  0.00123

 Side 1  free  transition at x/c =  0.0254    4
 Side 2  free  transition at x/c =  0.0225    5

  34   rms: 0.2558E-01   max: 0.6875E+00   C at    4  1
       a =  0.000      CL =  0.2187
      Cm = -0.0480     CD =  0.00879   =>   CDf =  0.00758    CDp =  0.00120

 Side 1  free  transition at x/c =  0.0223    4
 Side 2  free  transition at x/c =  0.0225    5

  35   rms: 0.1152E-01   max: 0.2572E+00   C at    4  1
       a =  0.000      CL =  0.2187
      Cm = -0.0480     CD =  0.00878   =>   CDf =  0.00760    CDp =  0.00119

 Side 1  free  transition at x/c =  0.0203    4
 Side 2  free  transition at x/c =  0.0225    5

  36   rms: 0.2009E-01   max: -.4378E+00   D at    3  1
       a =  0.000      CL =  0.2187
      Cm = -0.0480     CD =  0.00878   =>   CDf =  0.00760    CDp =  0.00118

 Side 1  free  transition at x/c =  0.2562   28
 Side 2  free  transition at x/c =  0.0225    5

  37   rms: 0.4168E+00   max: 0.9545E+01   C at   28  1   RLX: 0.146
       a =  0.000      CL =  0.2193
      Cm = -0.0480     CD =  0.00799   =>   CDf =  0.00686    CDp =  0.00113

 Side 1  free  transition at x/c =  0.2290   25
 Side 2  free  transition at x/c =  0.0225    5

  38   rms: 0.3401E+00   max: 0.8885E+01   C at   25  1   RLX: 0.169
       a =  0.000      CL =  0.2194
      Cm = -0.0480     CD =  0.00806   =>   CDf =  0.00695    CDp =  0.00111

 Side 1  free  transition at x/c =  0.0278    4
 Side 2  free  transition at x/c =  0.0225    5

  39   rms: 0.7023E-01   max: 0.2043E+01   C at    4  1   RLX: 0.734
       a =  0.000      CL =  0.2186
      Cm = -0.0480     CD =  0.00879   =>   CDf =  0.00755    CDp =  0.00123

 Side 1  free  transition at x/c =  0.0252    4
 Side 2  free  transition at x/c =  0.0225    5

  40   rms: 0.2623E-01   max: 0.6911E+00   C at    4  1
       a =  0.000      CL =  0.2187
      Cm = -0.0480     CD =  0.00879   =>   CDf =  0.00758    CDp =  0.00120

 Side 1  free  transition at x/c =  0.0222    4
 Side 2  free  transition at x/c =  0.0225    5

  41   rms: 0.1152E-01   max: 0.2489E+00   C at    4  1
       a =  0.000      CL =  0.2187
      Cm = -0.0480     CD =  0.00878   =>   CDf =  0.00760    CDp =  0.00119

 Side 1  free  transition at x/c =  0.0202    4
 Side 2  free  transition at x/c =  0.0225    5

  42   rms: 0.1748E-01   max: -.3851E+00   D at    3  1
       a =  0.000      CL =  0.2187
      Cm = -0.0480     CD =  0.00878   =>   CDf =  0.00760    CDp =  0.00118

 Side 1  free  transition at x/c =  0.2149   23
 Side 2  free  transition at x/c =  0.0225    5

  43   rms: 0.1029E+01   max: 0.2854E+02   C at   23  1   RLX: 0.053
       a =  0.000      CL =  0.2191
      Cm = -0.0479     CD =  0.00809   =>   CDf =  0.00700    CDp =  0.00109

 Side 1  free  transition at x/c =  0.0414    6
 Side 2  free  transition at x/c =  0.0225    5

  44   rms: 0.1939E+01   max: 0.4835E+02   C at    6  1   RLX: 0.031
       a =  0.000      CL =  0.2178
      Cm = -0.0479     CD =  0.00880   =>   CDf =  0.00752    CDp =  0.00128

 Side 1  free  transition at x/c =  0.0309    5
 Side 2  free  transition at x/c =  0.0225    5

  45   rms: 0.5482E+00   max: 0.1248E+02   C at    5  1   RLX: 0.120
       a =  0.000      CL =  0.2174
      Cm = -0.0478     CD =  0.00884   =>   CDf =  0.00755    CDp =  0.00130

 Side 1  free  transition at x/c =  0.0276    4
 Side 2  free  transition at x/c =  0.0225    5

  46   rms: 0.6852E-01   max: 0.1997E+01   C at    4  1   RLX: 0.751
       a =  0.000      CL =  0.2183
      Cm = -0.0480     CD =  0.00879   =>   CDf =  0.00756    CDp =  0.00123

 Side 1  free  transition at x/c =  0.0251    4
 Side 2  free  transition at x/c =  0.0225    5

  47   rms: 0.2488E-01   max: 0.6545E+00   C at    4  1
       a =  0.000      CL =  0.2187
      Cm = -0.0480     CD =  0.00879   =>   CDf =  0.00758    CDp =  0.00120

 Side 1  free  transition at x/c =  0.0221    4
 Side 2  free  transition at x/c =  0.0225    5

  48   rms: 0.1157E-01   max: 0.2394E+00   C at    4  1
       a =  0.000      CL =  0.2187
      Cm = -0.0480     CD =  0.00878   =>   CDf =  0.00760    CDp =  0.00119

 Side 1  free  transition at x/c =  0.0200    4
 Side 2  free  transition at x/c =  0.0225    5

  49   rms: 0.1571E-01   max: -.3499E+00   D at    3  1
       a =  0.000      CL =  0.2187
      Cm = -0.0480     CD =  0.00878   =>   CDf =  0.00760    CDp =  0.00118

 Side 1  free  transition at x/c =  0.0276    4
 Side 2  free  transition at x/c =  0.0225    5

  50   rms: 0.6942E-01   max: 0.2029E+01   C at    4  1   RLX: 0.739
       a =  0.000      CL =  0.2187
      Cm = -0.0480     CD =  0.00879   =>   CDf =  0.00756    CDp =  0.00123

 Side 1  free  transition at x/c =  0.0250    4
 Side 2  free  transition at x/c =  0.0225    5

  51   rms: 0.2470E-01   max: 0.6530E+00   C at    4  1
       a =  0.000      CL =  0.2187
      Cm = -0.0480     CD =  0.00879   =>   CDf =  0.00759    CDp =  0.00120

 Side 1  free  transition at x/c =  0.0221    4
 Side 2  free  transition at x/c =  0.0225    5

  52   rms: 0.1158E-01   max: 0.2387E+00   C at    4  1
       a =  0.000      CL =  0.2187
      Cm = -0.0480     CD =  0.00878   =>   CDf =  0.00760    CDp =  0.00119

 Side 1  free  transition at x/c =  0.0200    4
 Side 2  free  transition at x/c =  0.0225    5

  53   rms: 0.1559E-01   max: -.3476E+00   D at    3  1
       a =  0.000      CL =  0.2187
      Cm = -0.0480     CD =  0.00878   =>   CDf =  0.00760    CDp =  0.00118

 Side 1  free  transition at x/c =  0.0275    4
 Side 2  free  transition at x/c =  0.0225    5

  54   rms: 0.6822E-01   max: 0.1993E+01   C at    4  1   RLX: 0.753
       a =  0.000      CL =  0.2187
      Cm = -0.0480     CD =  0.00879   =>   CDf =  0.00756    CDp =  0.00123

 Side 1  free  transition at x/c =  0.0250    4
 Side 2  free  transition at x/c =  0.0225    5

  55   rms: 0.2187E-01   max: 0.5730E+00   C at    4  1
       a =  0.000      CL =  0.2187
      Cm = -0.0480     CD =  0.00879   =>   CDf =  0.00759    CDp =  0.00120

 Side 1  free  transition at x/c =  0.0220    4
 Side 2  free  transition at x/c =  0.0225    5

  56   rms: 0.1171E-01   max: 0.2347E+00   C at    4  1
       a =  0.000      CL =  0.2187
      Cm = -0.0480     CD =  0.00878   =>   CDf =  0.00760    CDp =  0.00119

 Side 1  free  transition at x/c =  0.0199    4
 Side 2  free  transition at x/c =  0.0225    5

  57   rms: 0.1492E-01   max: -.3351E+00   D at    3  1
       a =  0.000      CL =  0.2187
      Cm = -0.0480     CD =  0.00878   =>   CDf =  0.00760    CDp =  0.00118

 Side 1  free  transition at x/c =  0.0270    4
 Side 2  free  transition at x/c =  0.0225    5

  58   rms: 0.5997E-01   max: 0.1741E+01   C at    4  1   RLX: 0.862
       a =  0.000      CL =  0.2186
      Cm = -0.0480     CD =  0.00879   =>   CDf =  0.00757    CDp =  0.00123

 Side 1  free  transition at x/c =  0.0243    4
 Side 2  free  transition at x/c =  0.0225    5

  59   rms: 0.1907E-01   max: 0.5164E+00   C at    4  1
       a =  0.000      CL =  0.2187
      Cm = -0.0480     CD =  0.00879   =>   CDf =  0.00759    CDp =  0.00120

 Side 1  free  transition at x/c =  0.0215    4
 Side 2  free  transition at x/c =  0.0225    5

  60   rms: 0.1468E-01   max: 0.2635E+00   D at    3  1
       a =  0.000      CL =  0.2187
      Cm = -0.0480     CD =  0.00878   =>   CDf =  0.00760    CDp =  0.00119

 Side 1  free  transition at x/c =  0.0193    4
 Side 2  free  transition at x/c =  0.0225    5

  61   rms: 0.2041E-01   max: -.4813E+00   D at    3  1
       a =  0.000      CL =  0.2187
      Cm = -0.0480     CD =  0.00878   =>   CDf =  0.00760    CDp =  0.00118

 Side 1  free  transition at x/c =  0.2244   24
 Side 2  free  transition at x/c =  0.0225    5

  62   rms: 0.9674E+00   max: 0.2628E+02   C at   24  1   RLX: 0.057
       a =  0.000      CL =  0.2195
      Cm = -0.0479     CD =  0.00804   =>   CDf =  0.00697    CDp =  0.00107

 Side 1  free  transition at x/c =  0.0624    8
 Side 2  free  transition at x/c =  0.0225    5

  63   rms: 0.5409E+01   max: 0.1510E+03   C at    8  1   RLX: 0.010
       a =  0.000      CL =  0.2185
      Cm = -0.0479     CD =  0.00871   =>   CDf =  0.00747    CDp =  0.00124

 Side 1  free  transition at x/c =  0.0507    7
 Side 2  free  transition at x/c =  0.0225    5

  64   rms: 0.3088E+01   max: 0.7422E+02   C at    7  1   RLX: 0.020
       a =  0.000      CL =  0.2178
      Cm = -0.0478     CD =  0.00879   =>   CDf =  0.00750    CDp =  0.00129

 Side 1  free  transition at x/c =  0.0374    5
 Side 2  free  transition at x/c =  0.0225    5

  65   rms: 0.5412E+01   max: 0.1625E+03   C at    5  1   RLX: 0.009
       a =  0.000      CL =  0.2178
      Cm = -0.0478     CD =  0.00876   =>   CDf =  0.00753    CDp =  0.00122

 Side 1  free  transition at x/c =  0.0340    5
 Side 2  free  transition at x/c =  0.0225    5

  66   rms: 0.1463E+01   max: 0.4265E+02   C at    5  1   RLX: 0.035
       a =  0.000      CL =  0.2176
      Cm = -0.0478     CD =  0.00878   =>   CDf =  0.00754    CDp =  0.00124

 Side 1  free  transition at x/c =  0.0280    4
 Side 2  free  transition at x/c =  0.0225    5

  67   rms: 0.7317E-01   max: 0.2136E+01   C at    4  1   RLX: 0.702
       a =  0.000      CL =  0.2183
      Cm = -0.0479     CD =  0.00879   =>   CDf =  0.00755    CDp =  0.00123

 Side 1  free  transition at x/c =  0.0255    4
 Side 2  free  transition at x/c =  0.0225    5

  68   rms: 0.2685E-01   max: 0.7264E+00   C at    4  1
       a =  0.000      CL =  0.2187
      Cm = -0.0480     CD =  0.00879   =>   CDf =  0.00758    CDp =  0.00120

 Side 1  free  transition at x/c =  0.0224    4
 Side 2  free  transition at x/c =  0.0225    5

  69   rms: 0.1154E-01   max: 0.2634E+00   C at    4  1
       a =  0.000      CL =  0.2187
      Cm = -0.0480     CD =  0.00878   =>   CDf =  0.00760    CDp =  0.00119

 Side 1  free  transition at x/c =  0.0203    4
 Side 2  free  transition at x/c =  0.0225    5

  70   rms: 0.2276E-01   max: -.4923E+00   D at    3  1
       a =  0.000      CL =  0.2187
      Cm = -0.0480     CD =  0.00878   =>   CDf =  0.00760    CDp =  0.00118

 Side 1  free  transition at x/c =  0.2820   30
 Side 2  free  transition at x/c =  0.0225    5

  71   rms: 0.9045E+00   max: 0.2435E+02   C at   30  1   RLX: 0.062
       a =  0.000      CL =  0.2197
      Cm = -0.0479     CD =  0.00780   =>   CDf =  0.00676    CDp =  0.00103

 Side 1  free  transition at x/c =  0.2703   29
 Side 2  free  transition at x/c =  0.0225    5

  72   rms: 0.6174E+00   max: 0.1652E+02   C at   29  1   RLX: 0.091
       a =  0.000      CL =  0.2196
      Cm = -0.0480     CD =  0.00787   =>   CDf =  0.00681    CDp =  0.00106

 Side 1  free  transition at x/c =  0.2536   27
 Side 2  free  transition at x/c =  0.0225    5

  73   rms: 0.6546E+00   max: 0.1791E+02   C at   27  1   RLX: 0.084
       a =  0.000      CL =  0.2196
      Cm = -0.0480     CD =  0.00792   =>   CDf =  0.00687    CDp =  0.00106

 Side 1  free  transition at x/c =  0.2388   26
 Side 2  free  transition at x/c =  0.0225    5

  74   rms: 0.2996E+00   max: 0.7824E+01   C at   26  1   RLX: 0.192
       a =  0.000      CL =  0.2199
      Cm = -0.0481     CD =  0.00802   =>   CDf =  0.00692    CDp =  0.00110

 Side 1  free  transition at x/c =  0.0278    4
 Side 2  free  transition at x/c =  0.0225    5

  75   rms: 0.7085E-01   max: 0.2064E+01   C at    4  1   RLX: 0.727
       a =  0.000      CL =  0.2187
      Cm = -0.0481     CD =  0.00879   =>   CDf =  0.00755    CDp =  0.00123

 Side 1  free  transition at x/c =  0.0253    4
 Side 2  free  transition at x/c =  0.0225    5

  76   rms: 0.2625E-01   max: 0.7048E+00   C at    4  1
       a =  0.000      CL =  0.2187
      Cm = -0.0480     CD =  0.00879   =>   CDf =  0.00758    CDp =  0.00120

 Side 1  free  transition at x/c =  0.0222    4
 Side 2  free  transition at x/c =  0.0225    5

  77   rms: 0.1153E-01   max: 0.2510E+00   C at    4  1
       a =  0.000      CL =  0.2187
      Cm = -0.0480     CD =  0.00878   =>   CDf =  0.00760    CDp =  0.00119

 Side 1  free  transition at x/c =  0.0202    4
 Side 2  free  transition at x/c =  0.0225    5

  78   rms: 0.1795E-01   max: -.3945E+00   D at    3  1
       a =  0.000      CL =  0.2187
      Cm = -0.0480     CD =  0.00878   =>   CDf =  0.00760    CDp =  0.00118

 Side 1  free  transition at x/c =  0.2272   25
 Side 2  free  transition at x/c =  0.0225    5

  79   rms: 0.3887E+00   max: 0.9481E+01   C at   25  1   RLX: 0.158
       a =  0.000      CL =  0.2193
      Cm = -0.0480     CD =  0.00810   =>   CDf =  0.00696    CDp =  0.00114

 Side 1  free  transition at x/c =  0.0279    4
 Side 2  free  transition at x/c =  0.0225    5

  80   rms: 0.7095E-01   max: 0.2066E+01   C at    4  1   RLX: 0.726
       a =  0.000      CL =  0.2186
      Cm = -0.0480     CD =  0.00879   =>   CDf =  0.00755    CDp =  0.00123

 Side 1  free  transition at x/c =  0.0253    4
 Side 2  free  transition at x/c =  0.0225    5

  81   rms: 0.2544E-01   max: 0.6808E+00   C at    4  1
       a =  0.000      CL =  0.2187
      Cm = -0.0480     CD =  0.00879   =>   CDf =  0.00758    CDp =  0.00120

 Side 1  free  transition at x/c =  0.0223    4
 Side 2  free  transition at x/c =  0.0225    5

  82   rms: 0.1152E-01   max: 0.2535E+00   C at    4  1
       a =  0.000      CL =  0.2187
      Cm = -0.0480     CD =  0.00878   =>   CDf =  0.00760    CDp =  0.00119

 Side 1  free  transition at x/c =  0.0202    4
 Side 2  free  transition at x/c =  0.0225    5

  83   rms: 0.1878E-01   max: -.4113E+00   D at    3  1
       a =  0.000      CL =  0.2187
      Cm = -0.0480     CD =  0.00878   =>   CDf =  0.00760    CDp =  0.00118

 Side 1  free  transition at x/c =  0.2411   26
 Side 2  free  transition at x/c =  0.0225    5

  84   rms: 0.6971E+00   max: 0.1909E+02   C at   26  1   RLX: 0.079
       a =  0.000      CL =  0.2195
      Cm = -0.0480     CD =  0.00798   =>   CDf =  0.00691    CDp =  0.00107

 Side 1  free  transition at x/c =  0.2286   25
 Side 2  free  transition at x/c =  0.0225    5

  85   rms: 0.3917E+00   max: 0.1018E+02   C at   25  1   RLX: 0.147
       a =  0.000      CL =  0.2195
      Cm = -0.0480     CD =  0.00807   =>   CDf =  0.00696    CDp =  0.00111

 Side 1  free  transition at x/c =  0.0278    4
 Side 2  free  transition at x/c =  0.0225    5

  86   rms: 0.7074E-01   max: 0.2060E+01   C at    4  1   RLX: 0.728
       a =  0.000      CL =  0.2186
      Cm = -0.0480     CD =  0.00879   =>   CDf =  0.00755    CDp =  0.00123

 Side 1  free  transition at x/c =  0.0253    4
 Side 2  free  transition at x/c =  0.0225    5

  87   rms: 0.2581E-01   max: 0.6915E+00   C at    4  1
       a =  0.000      CL =  0.2187
      Cm = -0.0480     CD =  0.00879   =>   CDf =  0.00758    CDp =  0.00120

 Side 1  free  transition at x/c =  0.0223    4
 Side 2  free  transition at x/c =  0.0225    5

  88   rms: 0.1153E-01   max: 0.2520E+00   C at    4  1
       a =  0.000      CL =  0.2187
      Cm = -0.0480     CD =  0.00878   =>   CDf =  0.00760    CDp =  0.00119

 Side 1  free  transition at x/c =  0.0202    4
 Side 2  free  transition at x/c =  0.0225    5

  89   rms: 0.1829E-01   max: -.4013E+00   D at    3  1
       a =  0.000      CL =  0.2187
      Cm = -0.0480     CD =  0.00878   =>   CDf =  0.00760    CDp =  0.00118

 Side 1  free  transition at x/c =  0.2348   25
 Side 2  free  transition at x/c =  0.0225    5

  90   rms: 0.9923E+00   max: 0.2666E+02   C at   25  1   RLX: 0.056
       a =  0.000      CL =  0.2196
      Cm = -0.0479     CD =  0.00799   =>   CDf =  0.00693    CDp =  0.00106

 Side 1  free  transition at x/c =  0.2244   24
 Side 2  free  transition at x/c =  0.0225    5

  91   rms: 0.1027E+01   max: 0.2843E+02   C at   24  1   RLX: 0.053
       a =  0.000      CL =  0.2194
      Cm = -0.0479     CD =  0.00805   =>   CDf =  0.00697    CDp =  0.00108

 Side 1  free  transition at x/c =  0.0490    7
 Side 2  free  transition at x/c =  0.0225    5

  92   rms: 0.2354E+01   max: 0.4201E+02   C at    7  1   RLX: 0.018
       a =  0.000      CL =  0.2181
      Cm = -0.0479     CD =  0.00878   =>   CDf =  0.00751    CDp =  0.00127

 Side 1  free  transition at x/c =  0.0374    5
 Side 2  free  transition at x/c =  0.0225    5

  93   rms: 0.5363E+01   max: 0.1610E+03   C at    5  1   RLX: 0.009
       a =  0.000      CL =  0.2180
      Cm = -0.0479     CD =  0.00875   =>   CDf =  0.00753    CDp =  0.00122

 Side 1  free  transition at x/c =  0.0340    5
 Side 2  free  transition at x/c =  0.0225    5

  94   rms: 0.1434E+01   max: 0.4175E+02   C at    5  1   RLX: 0.036
       a =  0.000      CL =  0.2179
      Cm = -0.0479     CD =  0.00878   =>   CDf =  0.00754    CDp =  0.00124

 Side 1  free  transition at x/c =  0.0280    4
 Side 2  free  transition at x/c =  0.0225    5

  95   rms: 0.7324E-01   max: 0.2138E+01   C at    4  1   RLX: 0.701
       a =  0.000      CL =  0.2184
      Cm = -0.0480     CD =  0.00878   =>   CDf =  0.00755    CDp =  0.00123

 Side 1  free  transition at x/c =  0.0255    4
 Side 2  free  transition at x/c =  0.0225    5

  96   rms: 0.2685E-01   max: 0.7267E+00   C at    4  1
       a =  0.000      CL =  0.2187
      Cm = -0.0480     CD =  0.00879   =>   CDf =  0.00758    CDp =  0.00120

 Side 1  free  transition at x/c =  0.0224    4
 Side 2  free  transition at x/c =  0.0225    5

  97   rms: 0.1154E-01   max: 0.2634E+00   C at    4  1
       a =  0.000      CL =  0.2187
      Cm = -0.0480     CD =  0.00878   =>   CDf =  0.00760    CDp =  0.00119

 Side 1  free  transition at x/c =  0.0203    4
 Side 2  free  transition at x/c =  0.0225    5

  98   rms: 0.2273E-01   max: -.4917E+00   D at    3  1
       a =  0.000      CL =  0.2187
      Cm = -0.0480     CD =  0.00878   =>   CDf =  0.00760    CDp =  0.00118

 Side 1  free  transition at x/c =  0.2817   30
 Side 2  free  transition at x/c =  0.0225    5

  99   rms: 0.8710E+00   max: 0.2348E+02   C at   30  1   RLX: 0.064
       a =  0.000      CL =  0.2197
      Cm = -0.0479     CD =  0.00780   =>   CDf =  0.00677    CDp =  0.00103

 Side 1  free  transition at x/c =  0.2694   29
 Side 2  free  transition at x/c =  0.0225    5

 100   rms: 0.5916E+00   max: 0.1562E+02   C at   29  1   RLX: 0.096
       a =  0.000      CL =  0.2196
      Cm = -0.0480     CD =  0.00788   =>   CDf =  0.00681    CDp =  0.00107

 Side 1  free  transition at x/c =  0.2515   27
 Side 2  free  transition at x/c =  0.0225    5

 101   rms: 0.5948E+00   max: 0.1620E+02   C at   27  1   RLX: 0.093
       a =  0.000      CL =  0.2195
      Cm = -0.0480     CD =  0.00794   =>   CDf =  0.00687    CDp =  0.00107

 Side 1  free  transition at x/c =  0.2361   26
 Side 2  free  transition at x/c =  0.0225    5

 102   rms: 0.2852E+00   max: 0.6434E+01   C at   26  1   RLX: 0.195
       a =  0.000      CL =  0.2196
      Cm = -0.0481     CD =  0.00806   =>   CDf =  0.00693    CDp =  0.00113

 Side 1  free  transition at x/c =  0.0277    4
 Side 2  free  transition at x/c =  0.0225    5

 103   rms: 0.6972E-01   max: 0.2025E+01   C at    4  1   RLX: 0.741
       a =  0.000      CL =  0.2187
      Cm = -0.0480     CD =  0.00879   =>   CDf =  0.00756    CDp =  0.00123

 Side 1  free  transition at x/c =  0.0252    4
 Side 2  free  transition at x/c =  0.0225    5

 104   rms: 0.2750E-01   max: 0.7273E+00   C at    4  1
       a =  0.000      CL =  0.2187
      Cm = -0.0480     CD =  0.00879   =>   CDf =  0.00758    CDp =  0.00120

 Side 1  free  transition at x/c =  0.0222    4
 Side 2  free  transition at x/c =  0.0225    5

 105   rms: 0.1152E-01   max: 0.2451E+00   C at    4  1
       a =  0.000      CL =  0.2187
      Cm = -0.0480     CD =  0.00878   =>   CDf =  0.00760    CDp =  0.00119

 Side 1  free  transition at x/c =  0.0201    4
 Side 2  free  transition at x/c =  0.0225    5

 106   rms: 0.1674E-01   max: -.3702E+00   D at    3  1
       a =  0.000      CL =  0.2187
      Cm = -0.0480     CD =  0.00878   =>   CDf =  0.00760    CDp =  0.00118

 Side 1  free  transition at x/c =  0.0326    5
 Side 2  free  transition at x/c =  0.0225    5

 107   rms: 0.8970E+00   max: 0.2421E+02   C at    5  1   RLX: 0.062
       a =  0.000      CL =  0.2187
      Cm = -0.0479     CD =  0.00881   =>   CDf =  0.00754    CDp =  0.00126

 Side 1  free  transition at x/c =  0.0279    4
 Side 2  free  transition at x/c =  0.0225    5

 108   rms: 0.7095E-01   max: 0.2070E+01   C at    4  1   RLX: 0.725
       a =  0.000      CL =  0.2186
      Cm = -0.0480     CD =  0.00879   =>   CDf =  0.00756    CDp =  0.00123

 Side 1  free  transition at x/c =  0.0253    4
 Side 2  free  transition at x/c =  0.0225    5

 109   rms: 0.2537E-01   max: 0.6795E+00   C at    4  1
       a =  0.000      CL =  0.2187
      Cm = -0.0480     CD =  0.00879   =>   CDf =  0.00758    CDp =  0.00120

 Side 1  free  transition at x/c =  0.0223    4
 Side 2  free  transition at x/c =  0.0225    5

 110   rms: 0.1152E-01   max: 0.2539E+00   C at    4  1
       a =  0.000      CL =  0.2187
      Cm = -0.0480     CD =  0.00878   =>   CDf =  0.00760    CDp =  0.00119

 Side 1  free  transition at x/c =  0.0202    4
 Side 2  free  transition at x/c =  0.0225    5

 111   rms: 0.1891E-01   max: -.4140E+00   D at    3  1
       a =  0.000      CL =  0.2187
      Cm = -0.0480     CD =  0.00878   =>   CDf =  0.00760    CDp =  0.00118

 Side 1  free  transition at x/c =  0.2436   26
 Side 2  free  transition at x/c =  0.0225    5

 112   rms: 0.9581E+00   max: 0.2597E+02   C at   26  1   RLX: 0.058
       a =  0.000      CL =  0.2196
      Cm = -0.0479     CD =  0.00796   =>   CDf =  0.00690    CDp =  0.00106

 Side 1  free  transition at x/c =  0.2356   25
 Side 2  free  transition at x/c =  0.0225    5

 113   rms: 0.3421E+00   max: 0.9315E+01   C at   25  1   RLX: 0.161
       a =  0.000      CL =  0.2201
      Cm = -0.0481     CD =  0.00800   =>   CDf =  0.00693    CDp =  0.00106

 Side 1  free  transition at x/c =  0.0279    4
 Side 2  free  transition at x/c =  0.0225    5

 114   rms: 0.7151E-01   max: 0.2087E+01   C at    4  1   RLX: 0.719
       a =  0.000      CL =  0.2188
      Cm = -0.0481     CD =  0.00879   =>   CDf =  0.00755    CDp =  0.00123

 Side 1  free  transition at x/c =  0.0254    4
 Side 2  free  transition at x/c =  0.0225    5

 115   rms: 0.2537E-01   max: 0.6804E+00   C at    4  1
       a =  0.000      CL =  0.2187
      Cm = -0.0480     CD =  0.00879   =>   CDf =  0.00758    CDp =  0.00120

 Side 1  free  transition at x/c =  0.0223    4
 Side 2  free  transition at x/c =  0.0225    5

 116   rms: 0.1152E-01   max: 0.2558E+00   C at    4  1
       a =  0.000      CL =  0.2187
      Cm = -0.0480     CD =  0.00878   =>   CDf =  0.00760    CDp =  0.00119

 Side 1  free  transition at x/c =  0.0202    4
 Side 2  free  transition at x/c =  0.0225    5

 117   rms: 0.1959E-01   max: -.4277E+00   D at    3  1
       a =  0.000      CL =  0.2187
      Cm = -0.0480     CD =  0.00878   =>   CDf =  0.00760    CDp =  0.00118

 Side 1  free  transition at x/c =  0.2517   27
 Side 2  free  transition at x/c =  0.0225    5

 118   rms: 0.8100E+00   max: 0.2211E+02   C at   27  1   RLX: 0.068
       a =  0.000      CL =  0.2195
      Cm = -0.0479     CD =  0.00793   =>   CDf =  0.00687    CDp =  0.00106

 Side 1  free  transition at x/c =  0.2408   26
 Side 2  free  transition at x/c =  0.0225    5

 119   rms: 0.4019E+00   max: 0.1090E+02   C at   26  1   RLX: 0.138
       a =  0.000      CL =  0.2197
      Cm = -0.0480     CD =  0.00799   =>   CDf =  0.00691    CDp =  0.00108

 Side 1  free  transition at x/c =  0.0364    5
 Side 2  free  transition at x/c =  0.0225    5

 120   rms: 0.4486E+01   max: 0.1352E+03   C at    5  1   RLX: 0.011
       a =  0.000      CL =  0.2188
      Cm = -0.0481     CD =  0.00875   =>   CDf =  0.00753    CDp =  0.00122

 Side 1  free  transition at x/c =  0.0327    5
 Side 2  free  transition at x/c =  0.0225    5

 121   rms: 0.9079E+00   max: 0.2457E+02   C at    5  1   RLX: 0.061
       a =  0.000      CL =  0.2185
      Cm = -0.0480     CD =  0.00880   =>   CDf =  0.00754    CDp =  0.00126

 Side 1  free  transition at x/c =  0.0279    4
 Side 2  free  transition at x/c =  0.0225    5

 122   rms: 0.7215E-01   max: 0.2108E+01   C at    4  1   RLX: 0.712
       a =  0.000      CL =  0.2186
      Cm = -0.0480     CD =  0.00879   =>   CDf =  0.00755    CDp =  0.00123

 Side 1  free  transition at x/c =  0.0254    4
 Side 2  free  transition at x/c =  0.0225    5

 123   rms: 0.2552E-01   max: 0.6863E+00   C at    4  1
       a =  0.000      CL =  0.2187
      Cm = -0.0480     CD =  0.00879   =>   CDf =  0.00758    CDp =  0.00120

 Side 1  free  transition at x/c =  0.0223    4
 Side 2  free  transition at x/c =  0.0225    5

 124   rms: 0.1152E-01   max: 0.2566E+00   C at    4  1
       a =  0.000      CL =  0.2187
      Cm = -0.0480     CD =  0.00878   =>   CDf =  0.00760    CDp =  0.00119

 Side 1  free  transition at x/c =  0.0203    4
 Side 2  free  transition at x/c =  0.0225    5

 125   rms: 0.1987E-01   max: -.4334E+00   D at    3  1
       a =  0.000      CL =  0.2187
      Cm = -0.0480     CD =  0.00878   =>   CDf =  0.00760    CDp =  0.00118

 Side 1  free  transition at x/c =  0.2541   27
 Side 2  free  transition at x/c =  0.0225    5

 126   rms: 0.5152E+00   max: 0.1408E+02   C at   27  1   RLX: 0.107
       a =  0.000      CL =  0.2196
      Cm = -0.0480     CD =  0.00792   =>   CDf =  0.00687    CDp =  0.00105

 Side 1  free  transition at x/c =  0.2352   25
 Side 2  free  transition at x/c =  0.0225    5

 127   rms: 0.2812E+00   max: 0.7654E+01   C at   25  1   RLX: 0.196
       a =  0.000      CL =  0.2202
      Cm = -0.0482     CD =  0.00800   =>   CDf =  0.00693    CDp =  0.00107

 Side 1  free  transition at x/c =  0.0277    4
 Side 2  free  transition at x/c =  0.0225    5

 128   rms: 0.6978E-01   max: 0.2033E+01   C at    4  1   RLX: 0.738
       a =  0.000      CL =  0.2188
      Cm = -0.0481     CD =  0.00879   =>   CDf =  0.00755    CDp =  0.00123

 Side 1  free  transition at x/c =  0.0252    4
 Side 2  free  transition at x/c =  0.0225    5

 129   rms: 0.2666E-01   max: 0.7041E+00   C at    4  1
       a =  0.000      CL =  0.2187
      Cm = -0.0480     CD =  0.00879   =>   CDf =  0.00758    CDp =  0.00120

 Side 1  free  transition at x/c =  0.0222    4
 Side 2  free  transition at x/c =  0.0225    5

 130   rms: 0.1152E-01   max: 0.2478E+00   C at    4  1
       a =  0.000      CL =  0.2187
      Cm = -0.0480     CD =  0.00878   =>   CDf =  0.00760    CDp =  0.00119

 Side 1  free  transition at x/c =  0.0201    4
 Side 2  free  transition at x/c =  0.0225    5

 131   rms: 0.1726E-01   max: -.3807E+00   D at    3  1
       a =  0.000      CL =  0.2187
      Cm = -0.0480     CD =  0.00878   =>   CDf =  0.00760    CDp =  0.00118

 Side 1  free  transition at x/c =  0.1153   13
 Side 2  free  transition at x/c =  0.0225    5

 132   rms: 0.1709E+02   max: 0.4984E+03   C at   13  1   RLX: 0.003
       a =  0.000      CL =  0.2189
      Cm = -0.0479     CD =  0.00850   =>   CDf =  0.00732    CDp =  0.00117

 Side 1  free  transition at x/c =  0.1060   12
 Side 2  free  transition at x/c =  0.0225    5

 133   rms: 0.1759E+02   max: 0.5139E+03   C at   12  1   RLX: 0.003
       a =  0.000      CL =  0.2186
      Cm = -0.0479     CD =  0.00853   =>   CDf =  0.00735    CDp =  0.00118

 Side 1  free  transition at x/c =  0.0980   12
 Side 2  free  transition at x/c =  0.0225    5

 134   rms: 0.6816E+01   max: 0.1490E+03   C at   12  1   RLX: 0.007
       a =  0.000      CL =  0.2179
      Cm = -0.0478     CD =  0.00862   =>   CDf =  0.00737    CDp =  0.00125

 Side 1  free  transition at x/c =  0.0839   10
 Side 2  free  transition at x/c =  0.0225    5

 135   rms: 0.1099E+02   max: 0.3224E+03   C at   10  1   RLX: 0.005
       a =  0.000      CL =  0.2177
      Cm = -0.0477     CD =  0.00862   =>   CDf =  0.00741    CDp =  0.00120

 Side 1  free  transition at x/c =  0.0740    9
 Side 2  free  transition at x/c =  0.0225    5

 136   rms: 0.9481E+01   max: 0.2782E+03   C at    9  1   RLX: 0.005
       a =  0.000      CL =  0.2174
      Cm = -0.0477     CD =  0.00865   =>   CDf =  0.00744    CDp =  0.00121

 Side 1  free  transition at x/c =  0.0646    8
 Side 2  free  transition at x/c =  0.0225    5

 137   rms: 0.8788E+01   max: 0.2599E+03   C at    8  1   RLX: 0.006
       a =  0.000      CL =  0.2172
      Cm = -0.0477     CD =  0.00868   =>   CDf =  0.00747    CDp =  0.00122

 Side 1  free  transition at x/c =  0.0562    7
 Side 2  free  transition at x/c =  0.0225    5

 138   rms: 0.1020E+02   max: 0.3054E+03   C at    7  1   RLX: 0.005
       a =  0.000      CL =  0.2171
      Cm = -0.0476     CD =  0.00870   =>   CDf =  0.00749    CDp =  0.00121

 Side 1  free  transition at x/c =  0.0507    7
 Side 2  free  transition at x/c =  0.0225    5

 139   rms: 0.3100E+01   max: 0.7419E+02   C at    7  1   RLX: 0.020
       a =  0.000      CL =  0.2165
      Cm = -0.0475     CD =  0.00879   =>   CDf =  0.00750    CDp =  0.00129

 Side 1  free  transition at x/c =  0.0375    5
 Side 2  free  transition at x/c =  0.0225    5

 140   rms: 0.5479E+01   max: 0.1644E+03   C at    5  1   RLX: 0.009
       a =  0.000      CL =  0.2164
      Cm = -0.0475     CD =  0.00876   =>   CDf =  0.00753    CDp =  0.00122

 Side 1  free  transition at x/c =  0.0341    5
 Side 2  free  transition at x/c =  0.0225    5

 141   rms: 0.1544E+01   max: 0.4520E+02   C at    5  1   RLX: 0.033
       a =  0.000      CL =  0.2163
      Cm = -0.0475     CD =  0.00878   =>   CDf =  0.00754    CDp =  0.00124

 Side 1  free  transition at x/c =  0.0282    5
 Side 2  free  transition at x/c =  0.0225    5

 142   rms: 0.1334E+00   max: -.1912E+01   D at    5  1   RLX: 0.261
       a =  0.000      CL =  0.2166
      Cm = -0.0476     CD =  0.00883   =>   CDf =  0.00755    CDp =  0.00127

 Side 1  free  transition at x/c =  0.0270    4
 Side 2  free  transition at x/c =  0.0225    5

 143   rms: 0.5782E-01   max: 0.1671E+01   C at    4  1   RLX: 0.898
       a =  0.000      CL =  0.2184
      Cm = -0.0480     CD =  0.00879   =>   CDf =  0.00756    CDp =  0.00123

 Side 1  free  transition at x/c =  0.0241    4
 Side 2  free  transition at x/c =  0.0225    5

 144   rms: 0.1861E-01   max: 0.5061E+00   C at    4  1
       a =  0.000      CL =  0.2187
      Cm = -0.0480     CD =  0.00879   =>   CDf =  0.00759    CDp =  0.00119

 Side 1  free  transition at x/c =  0.0214    4
 Side 2  free  transition at x/c =  0.0225    5

 145   rms: 0.1614E-01   max: 0.2961E+00   D at    3  1
       a =  0.000      CL =  0.2187
      Cm = -0.0480     CD =  0.00878   =>   CDf =  0.00760    CDp =  0.00119

 Side 1  free  transition at x/c =  0.0191    4
 Side 2  free  transition at x/c =  0.0225    5

 146   rms: 0.3224E-01   max: -.7704E+00   D at    3  1   RLX: 0.649
       a =  0.000      CL =  0.2187
      Cm = -0.0480     CD =  0.00878   =>   CDf =  0.00760    CDp =  0.00118

 Side 1  free  transition at x/c =  0.2254   24
 Side 2  free  transition at x/c =  0.0225    5

 147   rms: 0.3016E+00   max: 0.8250E+01   C at   24  1   RLX: 0.182
       a =  0.000      CL =  0.2199
      Cm = -0.0481     CD =  0.00804   =>   CDf =  0.00697    CDp =  0.00107

 Side 1  free  transition at x/c =  0.0277    4
 Side 2  free  transition at x/c =  0.0225    5

 148   rms: 0.6851E-01   max: 0.1995E+01   C at    4  1   RLX: 0.752
       a =  0.000      CL =  0.2187
      Cm = -0.0481     CD =  0.00879   =>   CDf =  0.00756    CDp =  0.00123

 Side 1  free  transition at x/c =  0.0251    4
 Side 2  free  transition at x/c =  0.0225    5

 149   rms: 0.2714E-01   max: 0.7169E+00   C at    4  1
       a =  0.000      CL =  0.2187
      Cm = -0.0480     CD =  0.00879   =>   CDf =  0.00758    CDp =  0.00120

 Side 1  free  transition at x/c =  0.0221    4
 Side 2  free  transition at x/c =  0.0225    5

 150   rms: 0.1153E-01   max: 0.2433E+00   C at    4  1
       a =  0.000      CL =  0.2187
      Cm = -0.0480     CD =  0.00878   =>   CDf =  0.00760    CDp =  0.00119

 Side 1  free  transition at x/c =  0.0201    4
 Side 2  free  transition at x/c =  0.0225    5

 151   rms: 0.1641E-01   max: -.3637E+00   D at    3  1
       a =  0.000      CL =  0.2187
      Cm = -0.0480     CD =  0.00878   =>   CDf =  0.00760    CDp =  0.00118

 Side 1  free  transition at x/c =  0.0279    4
 Side 2  free  transition at x/c =  0.0225    5

 152   rms: 0.7558E-01   max: 0.2217E+01   C at    4  1   RLX: 0.676
       a =  0.000      CL =  0.2188
      Cm = -0.0480     CD =  0.00879   =>   CDf =  0.00756    CDp =  0.00123

 Side 1  free  transition at x/c =  0.0255    4
 Side 2  free  transition at x/c =  0.0225    5

 153   rms: 0.2784E-01   max: 0.7620E+00   C at    4  1
       a =  0.000      CL =  0.2187
      Cm = -0.0480     CD =  0.00879   =>   CDf =  0.00758    CDp =  0.00120

 Side 1  free  transition at x/c =  0.0224    4
 Side 2  free  transition at x/c =  0.0225    5

 154   rms: 0.1157E-01   max: 0.2666E+00   C at    4  1
       a =  0.000      CL =  0.2187
      Cm = -0.0480     CD =  0.00878   =>   CDf =  0.00760    CDp =  0.00119

 Side 1  free  transition at x/c =  0.0204    4
 Side 2  free  transition at x/c =  0.0225    5

 155   rms: 0.2599E-01   max: -.5657E+00   D at    3  1   RLX: 0.884
       a =  0.000      CL =  0.2187
      Cm = -0.0480     CD =  0.00878   =>   CDf =  0.00760    CDp =  0.00118

 Side 1  free  transition at x/c =  0.2847   30
 Side 2  free  transition at x/c =  0.0225    5

 156   rms: 0.4949E+00   max: 0.1333E+02   C at   30  1   RLX: 0.113
       a =  0.000      CL =  0.2199
      Cm = -0.0480     CD =  0.00779   =>   CDf =  0.00676    CDp =  0.00103

 Side 1  free  transition at x/c =  0.2629   28
 Side 2  free  transition at x/c =  0.0225    5

 157   rms: 0.4612E+00   max: 0.1256E+02   C at   28  1   RLX: 0.119
       a =  0.000      CL =  0.2200
      Cm = -0.0481     CD =  0.00788   =>   CDf =  0.00683    CDp =  0.00105

 Side 1  free  transition at x/c =  0.2383   26
 Side 2  free  transition at x/c =  0.0225    5

 158   rms: 0.3822E+00   max: 0.9782E+01   C at   26  1   RLX: 0.153
       a =  0.000      CL =  0.2198
      Cm = -0.0481     CD =  0.00803   =>   CDf =  0.00692    CDp =  0.00111

 Side 1  free  transition at x/c =  0.0301    5
 Side 2  free  transition at x/c =  0.0225    5

 159   rms: 0.4165E+00   max: 0.8104E+01   C at    5  1   RLX: 0.133
       a =  0.000      CL =  0.2184
      Cm = -0.0481     CD =  0.00884   =>   CDf =  0.00755    CDp =  0.00129

 Side 1  free  transition at x/c =  0.0276    4
 Side 2  free  transition at x/c =  0.0225    5

 160   rms: 0.6842E-01   max: 0.1995E+01   C at    4  1   RLX: 0.752
       a =  0.000      CL =  0.2186
      Cm = -0.0480     CD =  0.00879   =>   CDf =  0.00756    CDp =  0.00123

 Side 1  free  transition at x/c =  0.0250    4
 Side 2  free  transition at x/c =  0.0225    5

 161   rms: 0.2222E-01   max: 0.5790E+00   C at    4  1
       a =  0.000      CL =  0.2187
      Cm = -0.0480     CD =  0.00879   =>   CDf =  0.00758    CDp =  0.00120

 Side 1  free  transition at x/c =  0.0220    4
 Side 2  free  transition at x/c =  0.0225    5

 162   rms: 0.1162E-01   max: 0.2368E+00   C at    4  1
       a =  0.000      CL =  0.2187
      Cm = -0.0480     CD =  0.00878   =>   CDf =  0.00760    CDp =  0.00119

 Side 1  free  transition at x/c =  0.0200    4
 Side 2  free  transition at x/c =  0.0225    5

 163   rms: 0.1527E-01   max: -.3416E+00   D at    3  1
       a =  0.000      CL =  0.2187
      Cm = -0.0480     CD =  0.00878   =>   CDf =  0.00760    CDp =  0.00118

 Side 1  free  transition at x/c =  0.0273    4
 Side 2  free  transition at x/c =  0.0225    5

 164   rms: 0.6474E-01   max: 0.1885E+01   C at    4  1   RLX: 0.796
       a =  0.000      CL =  0.2187
      Cm = -0.0480     CD =  0.00879   =>   CDf =  0.00756    CDp =  0.00123

 Side 1  free  transition at x/c =  0.0247    4
 Side 2  free  transition at x/c =  0.0225    5

 165   rms: 0.2035E-01   max: 0.5382E+00   C at    4  1
       a =  0.000      CL =  0.2187
      Cm = -0.0480     CD =  0.00879   =>   CDf =  0.00759    CDp =  0.00120

 Side 1  free  transition at x/c =  0.0218    4
 Side 2  free  transition at x/c =  0.0225    5

 166   rms: 0.1244E-01   max: 0.2311E+00   C at    4  1
       a =  0.000      CL =  0.2187
      Cm = -0.0480     CD =  0.00878   =>   CDf =  0.00760    CDp =  0.00119

 Side 1  free  transition at x/c =  0.0197    4
 Side 2  free  transition at x/c =  0.0225    5

 167   rms: 0.1455E-01   max: -.3333E+00   D at    3  1
       a =  0.000      CL =  0.2187
      Cm = -0.0480     CD =  0.00878   =>   CDf =  0.00760    CDp =  0.00118

 Side 1  free  transition at x/c =  0.0263    4
 Side 2  free  transition at x/c =  0.0225    5

 168   rms: 0.4551E-01   max: 0.1315E+01   C at    4  1
       a =  0.000      CL =  0.2186
      Cm = -0.0480     CD =  0.00879   =>   CDf =  0.00757    CDp =  0.00122

 Side 1  free  transition at x/c =  0.0232    4
 Side 2  free  transition at x/c =  0.0225    5

 169   rms: 0.1432E-01   max: 0.3799E+00   C at    4  1
       a =  0.000      CL =  0.2187
      Cm = -0.0480     CD =  0.00878   =>   CDf =  0.00760    CDp =  0.00119

 Side 1  free  transition at x/c =  0.0209    4
 Side 2  free  transition at x/c =  0.0225    5

 170   rms: 0.5146E-01   max: 0.1034E+01   D at    3  1
       a =  0.000      CL =  0.2188
      Cm = -0.0480     CD =  0.00878   =>   CDf =  0.00760    CDp =  0.00119

 Side 1  free  transition at x/c =  0.0187    4
 Side 2  free  transition at x/c =  0.0225    5

 171   rms: 0.9982E-02   max: -.2576E+00   D at    3  1
       a =  0.000      CL =  0.2188
      Cm = -0.0480     CD =  0.00879   =>   CDf =  0.00758    CDp =  0.00121

 Side 1  free  transition at x/c =  0.0183    3
 Side 2  free  transition at x/c =  0.0225    5

 172   rms: 0.3507E-02   max: -.8961E-01   D at    3  1
       a =  0.000      CL =  0.2187
      Cm = -0.0480     CD =  0.00879   =>   CDf =  0.00759    CDp =  0.00120

 Side 1  free  transition at x/c =  0.4334   45
 Side 2  free  transition at x/c =  0.0225    5

 173   rms: 0.1648E+00   max: 0.3804E+01   C at   45  1   RLX: 0.394
       a =  0.000      CL =  0.2242
      Cm = -0.0489     CD =  0.00716   =>   CDf =  0.00621    CDp =  0.00094

 Side 1  free  transition at x/c =  0.3604   38
 Side 2  free  transition at x/c =  0.0225    5

 174   rms: 0.3728E+00   max: 0.9548E+01   C at   38  1   RLX: 0.157
       a =  0.000      CL =  0.2239
      Cm = -0.0489     CD =  0.00747   =>   CDf =  0.00648    CDp =  0.00099

 Side 1  free  transition at x/c =  0.3294   35
 Side 2  free  transition at x/c =  0.0225    5

 175   rms: 0.4619E+00   max: 0.1190E+02   C at   35  1   RLX: 0.126
       a =  0.000      CL =  0.2235
      Cm = -0.0488     CD =  0.00761   =>   CDf =  0.00659    CDp =  0.00102

 Side 1  free  transition at x/c =  0.3036   32
 Side 2  free  transition at x/c =  0.0225    5

 176   rms: 0.5211E+00   max: 0.1397E+02   C at   32  1   RLX: 0.107
       a =  0.000      CL =  0.2232
      Cm = -0.0488     CD =  0.00769   =>   CDf =  0.00669    CDp =  0.00101

 Side 1  free  transition at x/c =  0.2816   30
 Side 2  free  transition at x/c =  0.0225    5

 177   rms: 0.5428E+00   max: 0.1463E+02   C at   30  1   RLX: 0.103
       a =  0.000      CL =  0.2228
      Cm = -0.0488     CD =  0.00780   =>   CDf =  0.00676    CDp =  0.00103

 Side 1  free  transition at x/c =  0.2603   28
 Side 2  free  transition at x/c =  0.0225    5

 178   rms: 0.5870E+00   max: 0.1576E+02   C at   28  1   RLX: 0.095
       a =  0.000      CL =  0.2223
      Cm = -0.0487     CD =  0.00790   =>   CDf =  0.00684    CDp =  0.00106

 Side 1  free  transition at x/c =  0.2442   26
 Side 2  free  transition at x/c =  0.0225    5

 179   rms: 0.5265E+00   max: 0.1443E+02   C at   26  1   RLX: 0.104
       a =  0.000      CL =  0.2221
      Cm = -0.0487     CD =  0.00795   =>   CDf =  0.00690    CDp =  0.00105

 Side 1  free  transition at x/c =  0.1825   20
 Side 2  free  transition at x/c =  0.0225    5

 180   rms: 0.1471E+02   max: 0.4129E+03   C at   20  1   RLX: 0.004
       a =  0.000      CL =  0.2213
      Cm = -0.0486     CD =  0.00823   =>   CDf =  0.00711    CDp =  0.00112

 Side 1  free  transition at x/c =  0.1678   19
 Side 2  free  transition at x/c =  0.0225    5

 181   rms: 0.1021E+02   max: 0.2526E+03   C at   19  1   RLX: 0.006
       a =  0.000      CL =  0.2203
      Cm = -0.0485     CD =  0.00834   =>   CDf =  0.00716    CDp =  0.00118

 Side 1  free  transition at x/c =  0.1501   17
 Side 2  free  transition at x/c =  0.0225    5

 182   rms: 0.1168E+02   max: 0.3191E+03   C at   17  1   RLX: 0.005
       a =  0.000      CL =  0.2197
      Cm = -0.0484     CD =  0.00838   =>   CDf =  0.00721    CDp =  0.00117

 Side 1  free  transition at x/c =  0.1346   15
 Side 2  free  transition at x/c =  0.0225    5

 183   rms: 0.1689E+02   max: 0.4873E+03   C at   15  1   RLX: 0.003
       a =  0.000      CL =  0.2193
      Cm = -0.0483     CD =  0.00841   =>   CDf =  0.00726    CDp =  0.00115

 Side 1  free  transition at x/c =  0.1242   14
 Side 2  free  transition at x/c =  0.0225    5

 184   rms: 0.1604E+02   max: 0.4662E+03   C at   14  1   RLX: 0.003
       a =  0.000      CL =  0.2190
      Cm = -0.0483     CD =  0.00845   =>   CDf =  0.00730    CDp =  0.00116

 Side 1  free  transition at x/c =  0.1136   13
 Side 2  free  transition at x/c =  0.0225    5

 185   rms: 0.1432E+02   max: 0.4168E+03   C at   13  1   RLX: 0.004
       a =  0.000      CL =  0.2187
      Cm = -0.0482     CD =  0.00850   =>   CDf =  0.00733    CDp =  0.00117

 Side 1  free  transition at x/c =  0.1029   12
 Side 2  free  transition at x/c =  0.0225    5

 186   rms: 0.1176E+02   max: 0.3401E+03   C at   12  1   RLX: 0.004
       a =  0.000      CL =  0.2183
      Cm = -0.0482     CD =  0.00854   =>   CDf =  0.00736    CDp =  0.00118

 Side 1  free  transition at x/c =  0.0912   11
 Side 2  free  transition at x/c =  0.0225    5

 187   rms: 0.8436E+01   max: 0.2336E+03   C at   11  1   RLX: 0.006
       a =  0.000      CL =  0.2178
      Cm = -0.0481     CD =  0.00860   =>   CDf =  0.00739    CDp =  0.00121

 Side 1  free  transition at x/c =  0.0773   10
 Side 2  free  transition at x/c =  0.0225    5

 188   rms: 0.4531E+01   max: 0.7542E+02   C at   10  1   RLX: 0.009
       a =  0.000      CL =  0.2172
      Cm = -0.0480     CD =  0.00868   =>   CDf =  0.00743    CDp =  0.00125

 Side 1  free  transition at x/c =  0.0640    8
 Side 2  free  transition at x/c =  0.0225    5

 189   rms: 0.7686E+01   max: 0.2255E+03   C at    8  1   RLX: 0.007
       a =  0.000      CL =  0.2170
      Cm = -0.0480     CD =  0.00868   =>   CDf =  0.00747    CDp =  0.00121

 Side 1  free  transition at x/c =  0.0548    7
 Side 2  free  transition at x/c =  0.0225    5

 190   rms: 0.6874E+01   max: 0.2038E+03   C at    7  1   RLX: 0.007
       a =  0.000      CL =  0.2168
      Cm = -0.0479     CD =  0.00870   =>   CDf =  0.00749    CDp =  0.00121

 Side 1  free  transition at x/c =  0.0469    6
 Side 2  free  transition at x/c =  0.0225    5

 191   rms: 0.8666E+01   max: 0.2597E+03   C at    6  1   RLX: 0.006
       a =  0.000      CL =  0.2167
      Cm = -0.0479     CD =  0.00872   =>   CDf =  0.00751    CDp =  0.00121

 Side 1  free  transition at x/c =  0.0425    6
 Side 2  free  transition at x/c =  0.0225    5

 192   rms: 0.2445E+01   max: 0.6656E+02   C at    6  1   RLX: 0.023
       a =  0.000      CL =  0.2164
      Cm = -0.0479     CD =  0.00877   =>   CDf =  0.00752    CDp =  0.00125

 Side 1  free  transition at x/c =  0.0329    5
 Side 2  free  transition at x/c =  0.0225    5

 193   rms: 0.9283E+00   max: 0.2522E+02   C at    5  1   RLX: 0.059
       a =  0.000      CL =  0.2162
      Cm = -0.0478     CD =  0.00879   =>   CDf =  0.00754    CDp =  0.00125

 Side 1  free  transition at x/c =  0.0279    4
 Side 2  free  transition at x/c =  0.0225    5

 194   rms: 0.7548E-01   max: 0.2204E+01   C at    4  1   RLX: 0.680
       a =  0.000      CL =  0.2179
      Cm = -0.0479     CD =  0.00878   =>   CDf =  0.00755    CDp =  0.00123

 Side 1  free  transition at x/c =  0.0254    4
 Side 2  free  transition at x/c =  0.0225    5

 195   rms: 0.2699E-01   max: 0.7326E+00   C at    4  1
       a =  0.000      CL =  0.2187
      Cm = -0.0480     CD =  0.00879   =>   CDf =  0.00758    CDp =  0.00120

 Side 1  free  transition at x/c =  0.0224    4
 Side 2  free  transition at x/c =  0.0225    5

 196   rms: 0.1153E-01   max: 0.2608E+00   C at    4  1
       a =  0.000      CL =  0.2187
      Cm = -0.0480     CD =  0.00878   =>   CDf =  0.00760    CDp =  0.00119

 Side 1  free  transition at x/c =  0.0203    4
 Side 2  free  transition at x/c =  0.0225    5

 197   rms: 0.2155E-01   max: -.4677E+00   D at    3  1
       a =  0.000      CL =  0.2187
      Cm = -0.0480     CD =  0.00878   =>   CDf =  0.00760    CDp =  0.00118

 Side 1  free  transition at x/c =  0.2721   29
 Side 2  free  transition at x/c =  0.0225    5

 198   rms: 0.9072E+00   max: 0.2452E+02   C at   29  1   RLX: 0.061
       a =  0.000      CL =  0.2197
      Cm = -0.0479     CD =  0.00784   =>   CDf =  0.00680    CDp =  0.00104

 Side 1  free  transition at x/c =  0.2608   28
 Side 2  free  transition at x/c =  0.0225    5

 199   rms: 0.6171E+00   max: 0.1665E+02   C at   28  1   RLX: 0.090
       a =  0.000      CL =  0.2196
      Cm = -0.0480     CD =  0.00791   =>   CDf =  0.00684    CDp =  0.00106

 Side 1  free  transition at x/c =  0.2451   26
 Side 2  free  transition at x/c =  0.0225    5

 200   rms: 0.3681E+00   max: 0.1001E+02   C at   26  1   RLX: 0.150
       a =  0.000      CL =  0.2200
      Cm = -0.0481     CD =  0.00796   =>   CDf =  0.00690    CDp =  0.00106

 Side 1  free  transition at x/c =  0.0367    5
 Side 2  free  transition at x/c =  0.0225    5

 201   rms: 0.4704E+01   max: 0.1416E+03   C at    5  1   RLX: 0.011
       a =  0.000      CL =  0.2190
      Cm = -0.0481     CD =  0.00875   =>   CDf =  0.00753    CDp =  0.00122

 Side 1  free  transition at x/c =  0.0330    5
 Side 2  free  transition at x/c =  0.0225    5

 202   rms: 0.9955E+00   max: 0.2750E+02   C at    5  1   RLX: 0.055
       a =  0.000      CL =  0.2187
      Cm = -0.0481     CD =  0.00880   =>   CDf =  0.00754    CDp =  0.00125

 Side 1  free  transition at x/c =  0.0279    4
 Side 2  free  transition at x/c =  0.0225    5

 203   rms: 0.7288E-01   max: 0.2130E+01   C at    4  1   RLX: 0.704
       a =  0.000      CL =  0.2186
      Cm = -0.0480     CD =  0.00879   =>   CDf =  0.00755    CDp =  0.00123

 Side 1  free  transition at x/c =  0.0254    4
 Side 2  free  transition at x/c =  0.0225    5

 204   rms: 0.2610E-01   max: 0.7043E+00   C at    4  1
       a =  0.000      CL =  0.2187
      Cm = -0.0480     CD =  0.00879   =>   CDf =  0.00758    CDp =  0.00120

 Side 1  free  transition at x/c =  0.0223    4
 Side 2  free  transition at x/c =  0.0225    5

 205   rms: 0.1152E-01   max: 0.2594E+00   C at    4  1
       a =  0.000      CL =  0.2187
      Cm = -0.0480     CD =  0.00878   =>   CDf =  0.00760    CDp =  0.00119

 Side 1  free  transition at x/c =  0.0203    4
 Side 2  free  transition at x/c =  0.0225    5

 206   rms: 0.2097E-01   max: -.4559E+00   D at    3  1
       a =  0.000      CL =  0.2187
      Cm = -0.0480     CD =  0.00878   =>   CDf =  0.00760    CDp =  0.00118

 Side 1  free  transition at x/c =  0.2655   28
 Side 2  free  transition at x/c =  0.0225    5

 207   rms: 0.5218E+00   max: 0.1412E+02   C at   28  1   RLX: 0.106
       a =  0.000      CL =  0.2197
      Cm = -0.0480     CD =  0.00787   =>   CDf =  0.00683    CDp =  0.00104

 Side 1  free  transition at x/c =  0.2450   26
 Side 2  free  transition at x/c =  0.0225    5

 208   rms: 0.3104E+00   max: 0.8434E+01   C at   26  1   RLX: 0.178
       a =  0.000      CL =  0.2202
      Cm = -0.0482     CD =  0.00796   =>   CDf =  0.00690    CDp =  0.00106

 Side 1  free  transition at x/c =  0.0321    5
 Side 2  free  transition at x/c =  0.0225    5

 209   rms: 0.7552E+00   max: 0.1939E+02   C at    5  1   RLX: 0.077
       a =  0.000      CL =  0.2189
      Cm = -0.0481     CD =  0.00881   =>   CDf =  0.00754    CDp =  0.00127

 Side 1  free  transition at x/c =  0.0278    4
 Side 2  free  transition at x/c =  0.0225    5

 210   rms: 0.7147E-01   max: 0.2089E+01   C at    4  1   RLX: 0.718
       a =  0.000      CL =  0.2187
      Cm = -0.0480     CD =  0.00879   =>   CDf =  0.00755    CDp =  0.00123

 Side 1  free  transition at x/c =  0.0253    4
 Side 2  free  transition at x/c =  0.0225    5

 211   rms: 0.2551E-01   max: 0.6852E+00   C at    4  1
       a =  0.000      CL =  0.2187
      Cm = -0.0480     CD =  0.00879   =>   CDf =  0.00758    CDp =  0.00120

 Side 1  free  transition at x/c =  0.0223    4
 Side 2  free  transition at x/c =  0.0225    5

 212   rms: 0.1152E-01   max: 0.2529E+00   C at    4  1
       a =  0.000      CL =  0.2187
      Cm = -0.0480     CD =  0.00878   =>   CDf =  0.00760    CDp =  0.00119

 Side 1  free  transition at x/c =  0.0202    4
 Side 2  free  transition at x/c =  0.0225    5

 213   rms: 0.1857E-01   max: -.4070E+00   D at    3  1
       a =  0.000      CL =  0.2187
      Cm = -0.0480     CD =  0.00878   =>   CDf =  0.00760    CDp =  0.00118

 Side 1  free  transition at x/c =  0.2373   26
 Side 2  free  transition at x/c =  0.0225    5

 214   rms: 0.4429E+00   max: 0.1090E+02   C at   26  1   RLX: 0.138
       a =  0.000      CL =  0.2193
      Cm = -0.0480     CD =  0.00805   =>   CDf =  0.00693    CDp =  0.00113

 Side 1  free  transition at x/c =  0.0391    6
 Side 2  free  transition at x/c =  0.0225    5

 215   rms: 0.1471E+01   max: 0.2446E+02   C at    6  1   RLX: 0.030
       a =  0.000      CL =  0.2179
      Cm = -0.0479     CD =  0.00881   =>   CDf =  0.00753    CDp =  0.00128

 Side 1  free  transition at x/c =  0.0306    5
 Side 2  free  transition at x/c =  0.0225    5

 216   rms: 0.4861E+00   max: 0.1046E+02   C at    5  1   RLX: 0.130
       a =  0.000      CL =  0.2175
      Cm = -0.0478     CD =  0.00884   =>   CDf =  0.00755    CDp =  0.00130

 Side 1  free  transition at x/c =  0.0276    4
 Side 2  free  transition at x/c =  0.0225    5

 217   rms: 0.6827E-01   max: 0.1988E+01   C at    4  1   RLX: 0.754
       a =  0.000      CL =  0.2183
      Cm = -0.0480     CD =  0.00879   =>   CDf =  0.00756    CDp =  0.00123

 Side 1  free  transition at x/c =  0.0250    4
 Side 2  free  transition at x/c =  0.0225    5

 218   rms: 0.2237E-01   max: 0.5832E+00   C at    4  1
       a =  0.000      CL =  0.2187
      Cm = -0.0480     CD =  0.00879   =>   CDf =  0.00758    CDp =  0.00120

 Side 1  free  transition at x/c =  0.0221    4
 Side 2  free  transition at x/c =  0.0225    5

 219   rms: 0.1162E-01   max: 0.2370E+00   C at    4  1
       a =  0.000      CL =  0.2187
      Cm = -0.0480     CD =  0.00878   =>   CDf =  0.00760    CDp =  0.00119

 Side 1  free  transition at x/c =  0.0200    4
 Side 2  free  transition at x/c =  0.0225    5

 220   rms: 0.1531E-01   max: -.3423E+00   D at    3  1
       a =  0.000      CL =  0.2187
      Cm = -0.0480     CD =  0.00878   =>   CDf =  0.00760    CDp =  0.00118

 Side 1  free  transition at x/c =  0.0273    4
 Side 2  free  transition at x/c =  0.0225    5

 221   rms: 0.6516E-01   max: 0.1898E+01   C at    4  1   RLX: 0.790
       a =  0.000      CL =  0.2187
      Cm = -0.0480     CD =  0.00879   =>   CDf =  0.00756    CDp =  0.00123

 Side 1  free  transition at x/c =  0.0247    4
 Side 2  free  transition at x/c =  0.0225    5

 222   rms: 0.2050E-01   max: 0.5412E+00   C at    4  1
       a =  0.000      CL =  0.2187
      Cm = -0.0480     CD =  0.00879   =>   CDf =  0.00759    CDp =  0.00120

 Side 1  free  transition at x/c =  0.0218    4
 Side 2  free  transition at x/c =  0.0225    5

 223   rms: 0.1232E-01   max: 0.2310E+00   C at    4  1
       a =  0.000      CL =  0.2187
      Cm = -0.0480     CD =  0.00878   =>   CDf =  0.00760    CDp =  0.00119

 Side 1  free  transition at x/c =  0.0197    4
 Side 2  free  transition at x/c =  0.0225    5

 224   rms: 0.1447E-01   max: -.3308E+00   D at    3  1
       a =  0.000      CL =  0.2187
      Cm = -0.0480     CD =  0.00878   =>   CDf =  0.00760    CDp =  0.00118

 Side 1  free  transition at x/c =  0.0264    4
 Side 2  free  transition at x/c =  0.0225    5

 225   rms: 0.4613E-01   max: 0.1333E+01   C at    4  1
       a =  0.000      CL =  0.2186
      Cm = -0.0480     CD =  0.00879   =>   CDf =  0.00757    CDp =  0.00122

 Side 1  free  transition at x/c =  0.0232    4
 Side 2  free  transition at x/c =  0.0225    5

 226   rms: 0.1449E-01   max: 0.3854E+00   C at    4  1
       a =  0.000      CL =  0.2187
      Cm = -0.0480     CD =  0.00878   =>   CDf =  0.00759    CDp =  0.00119

 Side 1  free  transition at x/c =  0.0209    4
 Side 2  free  transition at x/c =  0.0225    5

 227   rms: 0.4799E-01   max: 0.9618E+00   D at    3  1
       a =  0.000      CL =  0.2188
      Cm = -0.0480     CD =  0.00878   =>   CDf =  0.00760    CDp =  0.00119

 Side 1  free  transition at x/c =  0.0185    4
 Side 2  free  transition at x/c =  0.0225    5

 228   rms: 0.8342E-02   max: -.2187E+00   D at    3  1
       a =  0.000      CL =  0.2188
      Cm = -0.0480     CD =  0.00879   =>   CDf =  0.00758    CDp =  0.00121

 Side 1  free  transition at x/c =  0.0183    3
 Side 2  free  transition at x/c =  0.0225    5

 229   rms: 0.2756E-02   max: -.7119E-01   D at    3  1
       a =  0.000      CL =  0.2187
      Cm = -0.0480     CD =  0.00879   =>   CDf =  0.00759    CDp =  0.00120

 Side 1  free  transition at x/c =  0.4336   45
 Side 2  free  transition at x/c =  0.0225    5

 230   rms: 0.1622E+00   max: 0.3735E+01   C at   45  1   RLX: 0.402
       a =  0.000      CL =  0.2244
      Cm = -0.0489     CD =  0.00716   =>   CDf =  0.00621    CDp =  0.00094

 Side 1  free  transition at x/c =  0.3585   38
 Side 2  free  transition at x/c =  0.0225    5

 231   rms: 0.3787E+00   max: 0.9348E+01   C at   38  1   RLX: 0.160
       a =  0.000      CL =  0.2239
      Cm = -0.0489     CD =  0.00750   =>   CDf =  0.00649    CDp =  0.00101

 Side 1  free  transition at x/c =  0.3267   35
 Side 2  free  transition at x/c =  0.0225    5

 232   rms: 0.4397E+00   max: 0.1041E+02   C at   35  1   RLX: 0.144
       a =  0.000      CL =  0.2232
      Cm = -0.0488     CD =  0.00766   =>   CDf =  0.00660    CDp =  0.00106

 Side 1  free  transition at x/c =  0.2968   32
 Side 2  free  transition at x/c =  0.0225    5

 233   rms: 0.4766E+00   max: 0.1141E+02   C at   32  1   RLX: 0.131
       a =  0.000      CL =  0.2224
      Cm = -0.0487     CD =  0.00779   =>   CDf =  0.00671    CDp =  0.00108

 Side 1  free  transition at x/c =  0.2704   29
 Side 2  free  transition at x/c =  0.0225    5

 234   rms: 0.6034E+00   max: 0.1615E+02   C at   29  1   RLX: 0.093
       a =  0.000      CL =  0.2220
      Cm = -0.0486     CD =  0.00786   =>   CDf =  0.00680    CDp =  0.00105

 Side 1  free  transition at x/c =  0.2531   27
 Side 2  free  transition at x/c =  0.0225    5

 235   rms: 0.6847E+00   max: 0.1876E+02   C at   27  1   RLX: 0.080
       a =  0.000      CL =  0.2217
[...]
 MRCHDU: Convergence failed at  88  side 1    Res =  0.6572E+01
 MRCHDU: Convergence failed at  89  side 1    Res =  0.6618E+01
 MRCHDU: Convergence failed at  90  side 1    Res =  0.6664E+01
 MRCHDU: Convergence failed at  91  side 1    Res =  0.6712E+01
 MRCHDU: Convergence failed at  92  side 1    Res =  0.6761E+01
 MRCHDU: Convergence failed at  93  side 1    Res =  0.6812E+01
 MRCHDU: Convergence failed at  94  side 1    Res =  0.6865E+01
 MRCHDU: Convergence failed at  95  side 1    Res =  0.6921E+01
 MRCHDU: Convergence failed at  96  side 1    Res =  0.4621E+01
 MRCHDU: Convergence failed at  97  side 1    Res =  0.4671E+01
 MRCHDU: Convergence failed at  98  side 1    Res =  0.4725E+01
 MRCHDU: Convergence failed at  99  side 1    Res =  0.4784E+01
 MRCHDU: Convergence failed at 100  side 1    Res =  0.4850E+01
 MRCHDU: Convergence failed at 101  side 1    Res =  0.4924E+01
 MRCHDU: Convergence failed at 102  side 1    Res =  0.5012E+01
 MRCHDU: Convergence failed at 103  side 1    Res =  0.5124E+01
 MRCHDU: Convergence failed at 104  side 1    Res =  0.5263E+01
 MRCHDU: Convergence failed at 105  side 1    Res =  0.2871E+02
 Side 1 forced transition at x/c =  1.0000  105
 Side 2 forced transition at x/c =  1.0000  100

 493   rms: 0.2749E+01   max: -.2564E+01   U at  105  1   RLX: 0.115
       a = 10.000      CL =  9.3251
      Cm = -2.2837     CD =  0.00055   =>   CDf =  0.04541    CDp = -0.04486

 MRCHDU: Convergence failed at   5  side 1    Res =  0.2853E+01
 MRCHDU: Convergence failed at   6  side 1    Res =  0.1817E+01
 MRCHDU: Convergence failed at   7  side 1    Res =  0.2289E+01
 MRCHDU: Convergence failed at   8  side 1    Res =  0.1155E+01
 Side 1  free  transition at x/c =  0.0472    9
 Side 2 forced transition at x/c =  1.0000  100

 494   rms: 0.2432E+01   max: -.2250E+01   U at  105  1   RLX: 0.063
       a = 10.000      CL =  8.6566
      Cm = -2.0670     CD =  0.00237   =>   CDf =  0.03285    CDp = -0.03048

 MRCHDU: Convergence failed at   5  side 1    Res =  0.3638E+01
 MRCHDU: Convergence failed at   6  side 1    Res =  0.1646E+01
 MRCHDU: Convergence failed at   7  side 1    Res =  0.4119E+01
 Side 1  free  transition at x/c =  0.0374    8
 Side 2 forced transition at x/c =  1.0000  100

 495   rms: 0.2284E+01   max: -.2108E+01   U at  105  1   RLX: 0.069
       a = 10.000      CL =  7.9934
      Cm = -1.8664     CD =  0.00248   =>   CDf =  0.03018    CDp = -0.02770

 MRCHDU: Convergence failed at   5  side 1    Res =  0.3734E+01
 MRCHDU: Convergence failed at   6  side 1    Res =  0.1661E+01
 MRCHDU: Convergence failed at   7  side 1    Res =  0.5951E+01
 Side 1  free  transition at x/c =  0.0373    8
 Side 2 forced transition at x/c =  1.0000  100

 496   rms: 0.2132E+01   max: -.1963E+01   U at  105  1   RLX: 0.075
       a = 10.000      CL =  7.3348
      Cm = -1.6714     CD =  0.00258   =>   CDf =  0.02824    CDp = -0.02567

 MRCHDU: Convergence failed at   5  side 1    Res =  0.3854E+01
 MRCHDU: Convergence failed at   6  side 1    Res =  0.1680E+01
 MRCHDU: Convergence failed at   7  side 1    Res =  0.2447E+01
 Side 1  free  transition at x/c =  0.0372    8
 Side 2 forced transition at x/c =  1.0000  100

 497   rms: 0.1976E+01   max: -.1814E+01   U at  105  1   RLX: 0.084
       a = 10.000      CL =  6.6884
      Cm = -1.4807     CD =  0.00269   =>   CDf =  0.02631    CDp = -0.02362

 MRCHDU: Convergence failed at   5  side 1    Res =  0.4013E+01
 MRCHDU: Convergence failed at   6  side 1    Res =  0.1702E+01
 MRCHDU: Convergence failed at   7  side 1    Res =  0.2386E+01
 MRCHDU: Convergence failed at   8  side 1    Res =  0.6718E+00
 MRCHDU: Convergence failed at   9  side 1    Res =  0.3821E+01
 MRCHDU: Convergence failed at  10  side 1    Res =  0.5337E+01
 MRCHDU: Convergence failed at  11  side 1    Res =  0.3498E+01
 MRCHDU: Convergence failed at  12  side 1    Res =  0.1347E+01
 MRCHDU: Convergence failed at  13  side 1    Res =  0.1365E+01
 MRCHDU: Convergence failed at  14  side 1    Res =  0.1279E+01
 MRCHDU: Convergence failed at  15  side 1    Res =  0.1183E+01
 MRCHDU: Convergence failed at  16  side 1    Res =  0.1193E+01
 MRCHDU: Convergence failed at  17  side 1    Res =  0.1687E+01
 MRCHDU: Convergence failed at  18  side 1    Res =  0.1912E+01
 MRCHDU: Convergence failed at  19  side 1    Res =  0.2194E+02
 MRCHDU: Convergence failed at  20  side 1    Res =  0.9701E+01
 MRCHDU: Convergence failed at  21  side 1    Res =  0.3865E+01
 MRCHDU: Convergence failed at  22  side 1    Res =  0.1331E+01
 MRCHDU: Convergence failed at  23  side 1    Res =  0.1287E+01
 MRCHDU: Convergence failed at  24  side 1    Res =  0.1259E+01
 MRCHDU: Convergence failed at  25  side 1    Res =  0.1265E+01
 MRCHDU: Convergence failed at  26  side 1    Res =  0.1309E+01
 MRCHDU: Convergence failed at  27  side 1    Res =  0.1332E+01
 MRCHDU: Convergence failed at  28  side 1    Res =  0.1346E+01
 MRCHDU: Convergence failed at  29  side 1    Res =  0.1313E+01
 MRCHDU: Convergence failed at  30  side 1    Res =  0.1301E+01
 MRCHDU: Convergence failed at  31  side 1    Res =  0.9522E+01
 MRCHDU: Convergence failed at  32  side 1    Res =  0.1982E+02
 MRCHDU: Convergence failed at  33  side 1    Res =  0.2409E+01
 MRCHDU: Convergence failed at  34  side 1    Res =  0.1055E+02
 MRCHDU: Convergence failed at  35  side 1    Res =  0.5708E+01
 MRCHDU: Convergence failed at  36  side 1    Res =  0.1650E+02
 MRCHDU: Convergence failed at  37  side 1    Res =  0.2521E+02
 MRCHDU: Convergence failed at  38  side 1    Res =  0.3262E+02
 MRCHDU: Convergence failed at  39  side 1    Res =  0.1360E+01
 MRCHDU: Convergence failed at  40  side 1    Res =  0.1367E+01
 MRCHDU: Convergence failed at  41  side 1    Res =  0.5415E+02
 MRCHDU: Convergence failed at  42  side 1    Res =  0.4375E+02
 MRCHDU: Convergence failed at  43  side 1    Res =  0.1402E+01
 MRCHDU: Convergence failed at  44  side 1    Res =  0.1419E+01
 MRCHDU: Convergence failed at  45  side 1    Res =  0.1441E+01
 MRCHDU: Convergence failed at  46  side 1    Res =  0.6685E+01
 MRCHDU: Convergence failed at  47  side 1    Res =  0.5641E+01
 MRCHDU: Convergence failed at  48  side 1    Res =  0.1018E+02
 MRCHDU: Convergence failed at  49  side 1    Res =  0.1777E+03
 MRCHDU: Convergence failed at  50  side 1    Res =  0.1633E+03
 MRCHDU: Convergence failed at  51  side 1    Res =  0.1810E+01
 MRCHDU: Convergence failed at  52  side 1    Res =  0.8434E+03
 MRCHDU: Convergence failed at  53  side 1    Res =  0.1670E+02
 MRCHDU: Convergence failed at  54  side 1    Res =  0.1704E+01
 MRCHDU: Convergence failed at  55  side 1    Res =  0.8617E+01
 MRCHDU: Convergence failed at  56  side 1    Res =  0.5465E+01
 MRCHDU: Convergence failed at  57  side 1    Res =  0.4782E+01
 MRCHDU: Convergence failed at  58  side 1    Res =  0.4356E+01
 MRCHDU: Convergence failed at  59  side 1    Res =  0.4074E+01
 MRCHDU: Convergence failed at  60  side 1    Res =  0.3310E+01
 MRCHDU: Convergence failed at  61  side 1    Res =  0.2503E+01
 MRCHDU: Convergence failed at  62  side 1    Res =  0.2318E+01
 MRCHDU: Convergence failed at  63  side 1    Res =  0.2189E+01
 MRCHDU: Convergence failed at  64  side 1    Res =  0.2092E+01
 MRCHDU: Convergence failed at  65  side 1    Res =  0.1581E+01
 MRCHDU: Convergence failed at  66  side 1    Res =  0.1584E+01
 MRCHDU: Convergence failed at  67  side 1    Res =  0.1589E+01
 MRCHDU: Convergence failed at  68  side 1    Res =  0.1594E+01
 MRCHDU: Convergence failed at  69  side 1    Res =  0.1600E+01
 MRCHDU: Convergence failed at  70  side 1    Res =  0.9546E+01
 MRCHDU: Convergence failed at  71  side 1    Res =  0.9595E+01
 MRCHDU: Convergence failed at  72  side 1    Res =  0.9636E+01
 MRCHDU: Convergence failed at  73  side 1    Res =  0.9672E+01
 MRCHDU: Convergence failed at  74  side 1    Res =  0.9701E+01
 MRCHDU: Convergence failed at  75  side 1    Res =  0.9725E+01
 MRCHDU: Convergence failed at  76  side 1    Res =  0.9743E+01
 MRCHDU: Convergence failed at  77  side 1    Res =  0.9755E+01
 MRCHDU: Convergence failed at  78  side 1    Res =  0.9762E+01
 MRCHDU: Convergence failed at  79  side 1    Res =  0.9764E+01
 MRCHDU: Convergence failed at  80  side 1    Res =  0.9760E+01
 MRCHDU: Convergence failed at  81  side 1    Res =  0.9751E+01
 MRCHDU: Convergence failed at  82  side 1    Res =  0.9737E+01
 MRCHDU: Convergence failed at  83  side 1    Res =  0.9717E+01
 MRCHDU: Convergence failed at  84  side 1    Res =  0.9692E+01
 MRCHDU: Convergence failed at  85  side 1    Res =  0.9662E+01
 MRCHDU: Convergence failed at  86  side 1    Res =  0.9626E+01
 MRCHDU: Convergence failed at  87  side 1    Res =  0.9584E+01
 MRCHDU: Convergence failed at  88  side 1    Res =  0.9537E+01
 MRCHDU: Convergence failed at  89  side 1    Res =  0.9483E+01
 MRCHDU: Convergence failed at  90  side 1    Res =  0.9424E+01
 MRCHDU: Convergence failed at  91  side 1    Res =  0.9359E+01
 MRCHDU: Convergence failed at  92  side 1    Res =  0.9286E+01
 MRCHDU: Convergence failed at  93  side 1    Res =  0.9207E+01
 MRCHDU: Convergence failed at  94  side 1    Res =  0.2000E+01
 MRCHDU: Convergence failed at  95  side 1    Res =  0.2068E+01
 MRCHDU: Convergence failed at  96  side 1    Res =  0.8334E+01
 MRCHDU: Convergence failed at  97  side 1    Res =  0.2770E+02
 MRCHDU: Convergence failed at  98  side 1    Res =  0.2073E+03
 MRCHDU: Convergence failed at  99  side 1    Res =  0.4952E+02
 MRCHDU: Convergence failed at 100  side 1    Res =  0.2686E+02
 MRCHDU: Convergence failed at 101  side 1    Res =  0.2946E+01
 MRCHDU: Convergence failed at 102  side 1    Res =  0.9695E+01
 MRCHDU: Convergence failed at 103  side 1    Res =  0.9261E+01
 MRCHDU: Convergence failed at 104  side 1    Res =  0.1298E+02
 MRCHDU: Convergence failed at 105  side 1    Res =  0.9192E+02
 Side 1 forced transition at x/c =  1.0000  105
 Side 2 forced transition at x/c =  1.0000  100

 498   rms: 0.2755E+01   max: -.2568E+01   U at  105  1   RLX: 0.095
       a = 10.000      CL =  9.6045
      Cm = -2.3649     CD =  0.00054   =>   CDf =  0.04550    CDp = -0.04495

 MRCHDU: Convergence failed at   5  side 1    Res =  0.4310E+01
 MRCHDU: Convergence failed at   6  side 1    Res =  0.1751E+01
 MRCHDU: Convergence failed at   7  side 1    Res =  0.2397E+01
 MRCHDU: Convergence failed at   8  side 1    Res =  0.1093E+01
 Side 1  free  transition at x/c =  0.0476   10
 Side 2 forced transition at x/c =  1.0000  100

 499   rms: 0.2491E+01   max: -.2306E+01   U at  105  1   RLX: 0.061
       a = 10.000      CL =  8.9316
      Cm = -2.1470     CD =  0.00234   =>   CDf =  0.03357    CDp = -0.03122

 MRCHDU: Convergence failed at   5  side 1    Res =  0.3613E+01
 MRCHDU: Convergence failed at   6  side 1    Res =  0.1644E+01
 MRCHDU: Convergence failed at   7  side 1    Res =  0.4153E+01
 Side 1  free  transition at x/c =  0.0374    8
 Side 2 forced transition at x/c =  1.0000  100

 500   rms: 0.2344E+01   max: -.2165E+01   U at  105  1   RLX: 0.066
       a = 10.000      CL =  8.2649
      Cm = -1.9449     CD =  0.00244   =>   CDf =  0.03101    CDp = -0.02857

 MRCHDU: Convergence failed at   5  side 1    Res =  0.3703E+01
 MRCHDU: Convergence failed at   6  side 1    Res =  0.1658E+01
 MRCHDU: Convergence failed at   7  side 1    Res =  0.3987E+01
 Side 1  free  transition at x/c =  0.0373    8
 Side 2 forced transition at x/c =  1.0000  100

 501   rms: 0.2194E+01   max: -.2021E+01   U at  105  1   RLX: 0.072
       a = 10.000      CL =  7.6019
      Cm = -1.7484     CD =  0.00253   =>   CDf =  0.02908    CDp = -0.02654

 MRCHDU: Convergence failed at   5  side 1    Res =  0.3812E+01
 MRCHDU: Convergence failed at   6  side 1    Res =  0.1675E+01
 MRCHDU: Convergence failed at   7  side 1    Res =  0.2460E+01
 Side 1  free  transition at x/c =  0.0372    8
 Side 2 forced transition at x/c =  1.0000  100

 502   rms: 0.2040E+01   max: -.1874E+01   U at  105  1   RLX: 0.080
       a = 10.000      CL =  6.9508
      Cm = -1.5560     CD =  0.00264   =>   CDf =  0.02714    CDp = -0.02450

 MRCHDU: Convergence failed at   5  side 1    Res =  0.3953E+01
 MRCHDU: Convergence failed at   6  side 1    Res =  0.1695E+01
 MRCHDU: Convergence failed at   7  side 1    Res =  0.2402E+01
 Side 1  free  transition at x/c =  0.0372    8
 Side 2 forced transition at x/c =  1.0000  100

 503   rms: 0.1883E+01   max: -.1723E+01   U at  105  1   RLX: 0.089
       a = 10.000      CL =  6.3126
      Cm = -1.3683     CD =  0.00277   =>   CDf =  0.02520    CDp = -0.02243

 MRCHDU: Convergence failed at   5  side 1    Res =  0.4145E+01
 MRCHDU: Convergence failed at   6  side 1    Res =  0.1721E+01
 MRCHDU: Convergence failed at   7  side 1    Res =  0.2337E+01
 MRCHDU: Convergence failed at   8  side 1    Res =  0.6069E+00
 MRCHDU: Convergence failed at   9  side 1    Res =  0.4013E+01
 MRCHDU: Convergence failed at  10  side 1    Res =  0.1183E+01
 MRCHDU: Convergence failed at  11  side 1    Res =  0.3242E+01
 MRCHDU: Convergence failed at  12  side 1    Res =  0.5426E+00
 MRCHDU: Convergence failed at  13  side 1    Res =  0.1439E+01
 MRCHDU: Convergence failed at  14  side 1    Res =  0.1336E+01
 MRCHDU: Convergence failed at  15  side 1    Res =  0.1283E+01
 MRCHDU: Convergence failed at  16  side 1    Res =  0.1348E+01
 MRCHDU: Convergence failed at  17  side 1    Res =  0.1804E+01
 MRCHDU: Convergence failed at  18  side 1    Res =  0.4119E+01
 MRCHDU: Convergence failed at  19  side 1    Res =  0.3492E+01
 MRCHDU: Convergence failed at  20  side 1    Res =  0.2043E+01
 MRCHDU: Convergence failed at  21  side 1    Res =  0.1585E+01
 MRCHDU: Convergence failed at  22  side 1    Res =  0.1614E+01
 MRCHDU: Convergence failed at  23  side 1    Res =  0.1445E+01
 MRCHDU: Convergence failed at  24  side 1    Res =  0.1416E+01
 MRCHDU: Convergence failed at  25  side 1    Res =  0.1399E+01
 MRCHDU: Convergence failed at  26  side 1    Res =  0.1418E+01
 MRCHDU: Convergence failed at  27  side 1    Res =  0.1513E+01
 MRCHDU: Convergence failed at  28  side 1    Res =  0.1731E+01
 MRCHDU: Convergence failed at  29  side 1    Res =  0.2002E+01
 MRCHDU: Convergence failed at  30  side 1    Res =  0.2626E+01
 MRCHDU: Convergence failed at  31  side 1    Res =  0.3811E+01
 MRCHDU: Convergence failed at  32  side 1    Res =  0.3901E+01
 MRCHDU: Convergence failed at  33  side 1    Res =  0.3580E+01
 MRCHDU: Convergence failed at  34  side 1    Res =  0.3413E+01
 MRCHDU: Convergence failed at  35  side 1    Res =  0.1740E+01
 MRCHDU: Convergence failed at  36  side 1    Res =  0.1523E+01
 MRCHDU: Convergence failed at  37  side 1    Res =  0.2685E+01
 MRCHDU: Convergence failed at  38  side 1    Res =  0.3946E+01
 MRCHDU: Convergence failed at  39  side 1    Res =  0.7134E+01
 MRCHDU: Convergence failed at  40  side 1    Res =  0.2596E+02
 MRCHDU: Convergence failed at  41  side 1    Res =  0.1957E+02
 MRCHDU: Convergence failed at  42  side 1    Res =  0.7876E+01
 MRCHDU: Convergence failed at  43  side 1    Res =  0.5669E+01
 MRCHDU: Convergence failed at  44  side 1    Res =  0.5654E+01
 MRCHDU: Convergence failed at  45  side 1    Res =  0.7656E+01
 MRCHDU: Convergence failed at  46  side 1    Res =  0.8172E+01
 MRCHDU: Convergence failed at  47  side 1    Res =  0.8108E+01
 MRCHDU: Convergence failed at  48  side 1    Res =  0.6170E+01
 MRCHDU: Convergence failed at  49  side 1    Res =  0.6357E+01
 MRCHDU: Convergence failed at  50  side 1    Res =  0.6540E+01
 MRCHDU: Convergence failed at  51  side 1    Res =  0.7123E+01
 MRCHDU: Convergence failed at  52  side 1    Res =  0.8103E+01
 MRCHDU: Convergence failed at  53  side 1    Res =  0.9247E+01
 MRCHDU: Convergence failed at  54  side 1    Res =  0.1055E+02
 MRCHDU: Convergence failed at  55  side 1    Res =  0.1200E+02
 MRCHDU: Convergence failed at  56  side 1    Res =  0.1359E+02
 MRCHDU: Convergence failed at  57  side 1    Res =  0.1535E+02
 MRCHDU: Convergence failed at  58  side 1    Res =  0.1725E+02
 MRCHDU: Convergence failed at  59  side 1    Res =  0.1931E+02
 MRCHDU: Convergence failed at  60  side 1    Res =  0.2151E+02
 MRCHDU: Convergence failed at  61  side 1    Res =  0.2367E+02
 MRCHDU: Convergence failed at  62  side 1    Res =  0.2599E+02
 MRCHDU: Convergence failed at  63  side 1    Res =  0.2826E+02
 MRCHDU: Convergence failed at  64  side 1    Res =  0.3039E+02
 MRCHDU: Convergence failed at  65  side 1    Res =  0.3224E+02
 MRCHDU: Convergence failed at  66  side 1    Res =  0.3371E+02
 MRCHDU: Convergence failed at  67  side 1    Res =  0.3470E+02
 MRCHDU: Convergence failed at  68  side 1    Res =  0.2302E+01
 MRCHDU: Convergence failed at  69  side 1    Res =  0.2319E+01
 MRCHDU: Convergence failed at  70  side 1    Res =  0.2338E+01
 MRCHDU: Convergence failed at  71  side 1    Res =  0.2357E+01
 MRCHDU: Convergence failed at  72  side 1    Res =  0.2378E+01
 MRCHDU: Convergence failed at  73  side 1    Res =  0.2400E+01
 MRCHDU: Convergence failed at  74  side 1    Res =  0.2423E+01
 MRCHDU: Convergence failed at  75  side 1    Res =  0.2448E+01
 MRCHDU: Convergence failed at  76  side 1    Res =  0.2474E+01
 MRCHDU: Convergence failed at  77  side 1    Res =  0.2502E+01
 MRCHDU: Convergence failed at  78  side 1    Res =  0.2532E+01
 MRCHDU: Convergence failed at  79  side 1    Res =  0.2564E+01
 MRCHDU: Convergence failed at  80  side 1    Res =  0.2598E+01
 MRCHDU: Convergence failed at  81  side 1    Res =  0.2634E+01
 MRCHDU: Convergence failed at  82  side 1    Res =  0.2674E+01
 MRCHDU: Convergence failed at  83  side 1    Res =  0.2716E+01
 MRCHDU: Convergence failed at  84  side 1    Res =  0.2761E+01
 MRCHDU: Convergence failed at  85  side 1    Res =  0.1401E+02
 MRCHDU: Convergence failed at  86  side 1    Res =  0.1318E+02
 MRCHDU: Convergence failed at  87  side 1    Res =  0.1241E+02
 MRCHDU: Convergence failed at  88  side 1    Res =  0.1170E+02
 MRCHDU: Convergence failed at  89  side 1    Res =  0.1106E+02
 MRCHDU: Convergence failed at  90  side 1    Res =  0.1046E+02
 MRCHDU: Convergence failed at  91  side 1    Res =  0.9912E+01
 MRCHDU: Convergence failed at  92  side 1    Res =  0.9403E+01
 MRCHDU: Convergence failed at  93  side 1    Res =  0.8930E+01
 MRCHDU: Convergence failed at  94  side 1    Res =  0.8488E+01
 MRCHDU: Convergence failed at  95  side 1    Res =  0.8071E+01
 MRCHDU: Convergence failed at  96  side 1    Res =  0.7858E+01
 MRCHDU: Convergence failed at  97  side 1    Res =  0.7748E+01
 MRCHDU: Convergence failed at  98  side 1    Res =  0.7629E+01
 MRCHDU: Convergence failed at  99  side 1    Res =  0.7499E+01
 MRCHDU: Convergence failed at 100  side 1    Res =  0.2245E+01
 MRCHDU: Convergence failed at 101  side 1    Res =  0.2296E+01
 MRCHDU: Convergence failed at 102  side 1    Res =  0.7112E+01
 MRCHDU: Convergence failed at 103  side 1    Res =  0.7009E+01
 MRCHDU: Convergence failed at 104  side 1    Res =  0.7242E+01
 MRCHDU: Convergence failed at 105  side 1    Res =  0.1378E+02
 Side 1 forced transition at x/c =  1.0000  105
 Side 2 forced transition at x/c =  1.0000  100

 504   rms: 0.2754E+01   max: -.2568E+01   U at  105  1   RLX: 0.102
       a = 10.000      CL =  9.5106
      Cm = -2.3374     CD =  0.00054   =>   CDf =  0.04549    CDp = -0.04495

 MRCHDU: Convergence failed at   5  side 1    Res =  0.2762E+01
 MRCHDU: Convergence failed at   6  side 1    Res =  0.1776E+01
 MRCHDU: Convergence failed at   7  side 1    Res =  0.2349E+01
 MRCHDU: Convergence failed at   8  side 1    Res =  0.1115E+01
 Side 1  free  transition at x/c =  0.0475   10
 Side 2 forced transition at x/c =  1.0000  100

 505   rms: 0.2472E+01   max: -.2287E+01   U at  105  1   RLX: 0.061
       a = 10.000      CL =  8.8416
      Cm = -2.1194     CD =  0.00235   =>   CDf =  0.03330    CDp = -0.03095
 VISCAL:  Convergence failed
      9.000    4.4616   0.002352   0.000534   0.000664   0.000130    0.0475     #

.OPERva   c>  
 XFOIL   c>  