  
       XFOIL         Version 6.99
  
 Calculated polar for:                                                 
  
 1 1 Reynolds number fixed          Mach number fixed         
  
 xtrf =   1.000 (top)        1.000 (bottom)  
 Mach =   0.000     Re =     0.403 e 6     Ncrit =   9.000  9.000
  
   alpha    CL        CD       CDp       CM     Top_Xtr  Bot_Xtr  Top_Itr  Bot_Itr
  ------ -------- --------- --------- -------- -------- -------- -------- --------
  -1.000   0.1119   0.00715  -0.00669  -0.0423   0.7927   0.6694  22.0414 169.7156
   0.000   0.2090   0.00687  -0.00615  -0.0380   0.7192   0.8745  29.4715 190.4040
   1.000   0.3538   0.00767  -0.00569  -0.0442   0.6321   0.9539  38.2675 198.3825
   2.000   0.5126   0.00877  -0.00571  -0.0545   0.5163   0.9819  49.9419 201.1884
   3.000   0.6676   0.00938  -0.00610  -0.0651   0.4334   0.9997  58.2808 202.9658
   4.000   0.7437   0.00986  -0.00637  -0.0590   0.3790   1.0000  63.7477 203.0000
   5.000   0.8205   0.01048  -0.00674  -0.0528   0.3322   1.0000  68.4581 203.0000
   6.000   0.8963   0.01134  -0.00723  -0.0464   0.2686   1.0000  74.7863 203.0000
   7.000   0.9619   0.01301  -0.00752  -0.0385   0.1655   1.0000  84.9541 203.0000
   8.000   0.9979   0.01668  -0.00664  -0.0257   0.0348   1.0000  98.1152 203.0000
   9.000   1.0429   0.01900  -0.00656  -0.0146   0.0259   1.0000  99.0491 203.0000
  10.000   1.0915   0.02103  -0.00676  -0.0052   0.0221   1.0000  99.4448 203.0000
