  
       XFOIL         Version 6.99
  
 Calculated polar for:                                                 
  
 1 1 Reynolds number fixed          Mach number fixed         
  
 xtrf =   1.000 (top)        1.000 (bottom)  
 Mach =   0.000     Re =     1.232 e 6     Ncrit =   9.000  9.000
  
   alpha    CL        CD       CDp       CM     Top_Xtr  Bot_Xtr  Top_Itr  Bot_Itr
  ------ -------- --------- --------- -------- -------- -------- -------- --------
  -2.000   0.2553   0.00710  -0.00845  -0.1001   0.6950   0.1054  31.7273 110.8193
  -1.900   0.2653   0.00708  -0.00839  -0.0999   0.6901   0.1116  32.2176 111.4367
  -1.800   0.2753   0.00705  -0.00832  -0.0997   0.6848   0.1184  32.7499 112.1150
  -1.700   0.2854   0.00704  -0.00825  -0.0995   0.6797   0.1253  33.2643 112.8065
  -1.600   0.2955   0.00704  -0.00819  -0.0993   0.6735   0.1300  33.8811 113.2820
  -1.500   0.3053   0.00703  -0.00812  -0.0990   0.6669   0.1354  34.5344 113.8288
  -1.400   0.3150   0.00703  -0.00806  -0.0987   0.6597   0.1421  35.2459 114.4964
  -1.300   0.3247   0.00706  -0.00800  -0.0984   0.6511   0.1467  36.1089 114.9611
  -1.200   0.3340   0.00708  -0.00794  -0.0981   0.6432   0.1509  36.8902 115.3845
  -1.100   0.3438   0.00708  -0.00788  -0.0978   0.6330   0.1560  37.9098 115.9138
  -1.000   0.3530   0.00711  -0.00783  -0.0974   0.6242   0.1641  38.7803 116.7314
  -0.900   0.3626   0.00712  -0.00777  -0.0972   0.6145   0.1703  39.7495 117.3590
  -0.800   0.3720   0.00715  -0.00772  -0.0968   0.6040   0.1762  40.7874 117.9652
  -0.700   0.3813   0.00718  -0.00766  -0.0965   0.5951   0.1821  41.6805 118.5618
  -0.600   0.3910   0.00719  -0.00761  -0.0962   0.5859   0.1875  42.5933 119.1152
  -0.500   0.4005   0.00722  -0.00756  -0.0959   0.5771   0.1936  43.4671 119.7361
  -0.400   0.4100   0.00724  -0.00750  -0.0956   0.5703   0.2008  44.1334 120.4697
  -0.300   0.4200   0.00725  -0.00745  -0.0954   0.5626   0.2080  44.8965 121.2072
  -0.200   0.4299   0.00726  -0.00740  -0.0952   0.5561   0.2154  45.5470 121.9662
  -0.100   0.4398   0.00727  -0.00736  -0.0950   0.5508   0.2239  46.0707 122.8342
   0.000   0.4498   0.00728  -0.00731  -0.0948   0.5461   0.2303  46.5401 123.4981
   0.100   0.4596   0.00729  -0.00726  -0.0945   0.5417   0.2378  46.9787 124.2573
   0.200   0.4701   0.00729  -0.00722  -0.0944   0.5363   0.2453  47.5091 125.0383
   0.300   0.4800   0.00730  -0.00718  -0.0942   0.5305   0.2520  48.0901 125.7227
   0.400   0.4899   0.00731  -0.00714  -0.0940   0.5259   0.2607  48.5389 126.6200
   0.500   0.4997   0.00733  -0.00710  -0.0938   0.5218   0.2696  48.9482 127.5283
   0.600   0.5100   0.00732  -0.00706  -0.0936   0.5171   0.2793  49.4129 128.5330
   0.700   0.5200   0.00732  -0.00702  -0.0935   0.5116   0.2898  49.9620 129.6184
   0.800   0.5300   0.00733  -0.00699  -0.0933   0.5076   0.2999  50.3590 130.6541
   0.900   0.5398   0.00734  -0.00695  -0.0930   0.5039   0.3108  50.7223 131.7778
   1.000   0.5495   0.00734  -0.00692  -0.0928   0.5006   0.3237  51.0449 133.1055
   1.100   0.5597   0.00731  -0.00689  -0.0927   0.4968   0.3432  51.4287 135.1213
   1.200   0.5694   0.00729  -0.00686  -0.0925   0.4924   0.3636  51.8561 137.2287
   1.300   0.5790   0.00729  -0.00683  -0.0922   0.4856   0.3768  52.5342 138.5844
   1.400   0.5882   0.00726  -0.00681  -0.0919   0.4813   0.4062  52.9639 141.6104
   1.500   0.5976   0.00719  -0.00678  -0.0916   0.4777   0.4432  53.3158 145.3593
   1.600   0.6065   0.00712  -0.00676  -0.0912   0.4741   0.4875  53.6688 149.8372
   1.700   0.6154   0.00707  -0.00673  -0.0909   0.4708   0.5283  53.9962 153.9667
   1.800   0.6245   0.00699  -0.00671  -0.0905   0.4676   0.5703  54.3141 158.1991
   1.900   0.6333   0.00692  -0.00669  -0.0901   0.4642   0.6126  54.6418 162.4571
   2.000   0.6419   0.00688  -0.00667  -0.0896   0.4610   0.6487  54.9573 166.0882
   2.100   0.6508   0.00681  -0.00665  -0.0892   0.4577   0.6873  55.2871 169.9645
   2.200   0.6591   0.00674  -0.00664  -0.0886   0.4538   0.7277  55.6689 173.9986
   2.300   0.6668   0.00667  -0.00663  -0.0880   0.4503   0.7667  56.0227 177.8983
   2.400   0.6743   0.00659  -0.00662  -0.0872   0.4467   0.8099  56.3801 182.2019
   2.500   0.6813   0.00651  -0.00661  -0.0863   0.4428   0.8557  56.7571 186.7565
   2.600   0.6906   0.00643  -0.00658  -0.0858   0.4391   0.9131  57.1237 192.4464
   2.700   0.7333   0.00653  -0.00644  -0.0931   0.4322   0.9619  57.8075 197.2563
   2.800   0.7576   0.00661  -0.00640  -0.0961   0.4278   0.9733  58.2456 198.3739
   2.900   0.7749   0.00668  -0.00639  -0.0976   0.4231   0.9799  58.7155 199.0308
   3.000   0.7913   0.00675  -0.00639  -0.0989   0.4174   0.9854  59.2703 199.5717
   3.100   0.8038   0.00684  -0.00639  -0.0993   0.4104   0.9928  59.9572 200.2901
   3.200   0.8221   0.00694  -0.00638  -0.1010   0.4010   0.9976  60.8868 200.7692
   3.300   0.8440   0.00705  -0.00637  -0.1036   0.3916   1.0000  61.8017 201.0000
   3.400   0.8525   0.00711  -0.00639  -0.1031   0.3859   1.0000  62.3606 201.0000
   3.500   0.8608   0.00718  -0.00640  -0.1026   0.3786   1.0000  63.0713 201.0000
   3.600   0.8689   0.00725  -0.00641  -0.1020   0.3725   1.0000  63.6613 201.0000
   3.700   0.8770   0.00733  -0.00643  -0.1014   0.3669   1.0000  64.2045 201.0000
   3.800   0.8852   0.00740  -0.00644  -0.1009   0.3600   1.0000  64.8721 201.0000
   3.900   0.8934   0.00748  -0.00646  -0.1003   0.3532   1.0000  65.5345 201.0000
   4.000   0.9014   0.00757  -0.00647  -0.0998   0.3465   1.0000  66.1894 201.0000
   4.100   0.9095   0.00765  -0.00649  -0.0992   0.3398   1.0000  66.8406 201.0000
   4.200   0.9177   0.00773  -0.00651  -0.0986   0.3337   1.0000  67.4249 201.0000
   4.300   0.9255   0.00783  -0.00652  -0.0980   0.3275   1.0000  68.0259 201.0000
   4.400   0.9338   0.00791  -0.00655  -0.0975   0.3188   1.0000  68.8792 201.0000
   4.500   0.9412   0.00803  -0.00656  -0.0968   0.3089   1.0000  69.8348 201.0000
   4.600   0.9487   0.00815  -0.00657  -0.0962   0.3003   1.0000  70.6748 201.0000
   4.700   0.9563   0.00827  -0.00659  -0.0955   0.2906   1.0000  71.6126 201.0000
   4.800   0.9630   0.00843  -0.00659  -0.0947   0.2781   1.0000  72.8296 201.0000
   4.900   0.9701   0.00857  -0.00659  -0.0940   0.2684   1.0000  73.7708 201.0000
   5.000   0.9775   0.00870  -0.00660  -0.0933   0.2577   1.0000  74.8061 201.0000
   5.100   0.9842   0.00886  -0.00660  -0.0925   0.2466   1.0000  75.8950 201.0000
   5.200   0.9915   0.00900  -0.00661  -0.0918   0.2383   1.0000  76.7087 201.0000
   5.300   0.9989   0.00912  -0.00663  -0.0911   0.2272   1.0000  77.7798 201.0000
   5.400   1.0047   0.00933  -0.00662  -0.0902   0.2153   1.0000  78.9476 201.0000
   5.500   1.0113   0.00950  -0.00662  -0.0894   0.2029   1.0000  80.1492 201.0000
   5.600   1.0167   0.00972  -0.00660  -0.0884   0.1869   1.0000  81.7261 201.0000
   5.700   1.0224   0.00994  -0.00658  -0.0874   0.1738   1.0000  83.0042 201.0000
   5.800   1.0279   0.01015  -0.00656  -0.0864   0.1589   1.0000  84.4749 201.0000
   5.900   1.0333   0.01037  -0.00655  -0.0854   0.1454   1.0000  85.8063 201.0000
   6.000   1.0386   0.01059  -0.00653  -0.0843   0.1332   1.0000  87.0069 201.0000
   6.100   1.0439   0.01081  -0.00651  -0.0833   0.1194   1.0000  88.3770 201.0000
   6.200   1.0477   0.01109  -0.00646  -0.0820   0.1030   1.0000  90.0171 201.0000
   6.300   1.0524   0.01132  -0.00645  -0.0808   0.0912   1.0000  91.1980 201.0000
   6.400   1.0557   0.01156  -0.00643  -0.0794   0.0780   1.0000  92.5256 201.0000
   6.600   1.0584   0.01218  -0.00633  -0.0757   0.0449   1.0000  95.9135 201.0000
   6.700   1.0568   0.01264  -0.00622  -0.0734   0.0234   1.0000  98.1615 201.0000
   6.800   1.0622   0.01282  -0.00625  -0.0723   0.0215   1.0000  98.3656 201.0000
   6.900   1.0685   0.01296  -0.00630  -0.0714   0.0206   1.0000  98.4701 201.0000
   7.000   1.0752   0.01308  -0.00635  -0.0706   0.0201   1.0000  98.5203 201.0000
   7.100   1.0820   0.01320  -0.00640  -0.0699   0.0198   1.0000  98.5498 201.0000
   7.200   1.0889   0.01332  -0.00645  -0.0691   0.0197   1.0000  98.5694 201.0000
   7.300   1.0959   0.01344  -0.00650  -0.0684   0.0195   1.0000  98.5833 201.0000
   7.400   1.1028   0.01356  -0.00655  -0.0677   0.0194   1.0000  98.5933 201.0000
   7.500   1.1097   0.01369  -0.00660  -0.0670   0.0194   1.0000  98.6007 201.0000
   7.600   1.1166   0.01382  -0.00665  -0.0663   0.0193   1.0000  98.6062 201.0000
   7.700   1.1234   0.01395  -0.00669  -0.0656   0.0193   1.0000  98.6102 201.0000
   7.800   1.1303   0.01409  -0.00673  -0.0649   0.0193   1.0000  98.6130 201.0000
   7.900   1.1371   0.01423  -0.00678  -0.0642   0.0192   1.0000  98.6148 201.0000
   8.000   1.1439   0.01437  -0.00682  -0.0635   0.0192   1.0000  98.6158 201.0000
   8.100   1.1507   0.01452  -0.00686  -0.0628   0.0192   1.0000  98.6161 201.0000
   8.200   1.1575   0.01467  -0.00690  -0.0621   0.0192   1.0000  98.6158 201.0000
   8.300   1.1641   0.01483  -0.00693  -0.0615   0.0192   1.0000  98.6149 201.0000
   8.400   1.1707   0.01499  -0.00697  -0.0608   0.0192   1.0000  98.6136 201.0000
   8.500   1.1773   0.01515  -0.00700  -0.0601   0.0193   1.0000  98.6119 201.0000
   8.600   1.1839   0.01532  -0.00703  -0.0594   0.0193   1.0000  98.6098 201.0000
   8.700   1.1903   0.01549  -0.00706  -0.0587   0.0193   1.0000  98.6074 201.0000
   8.800   1.1967   0.01567  -0.00708  -0.0580   0.0193   1.0000  98.6047 201.0000
   8.900   1.2031   0.01586  -0.00710  -0.0573   0.0194   1.0000  98.6017 201.0000
   9.000   1.2094   0.01605  -0.00712  -0.0566   0.0194   1.0000  98.5984 201.0000
   9.100   1.2155   0.01624  -0.00714  -0.0559   0.0194   1.0000  98.5949 201.0000
   9.200   1.2217   0.01645  -0.00715  -0.0552   0.0195   1.0000  98.5912 201.0000
   9.300   1.2277   0.01666  -0.00716  -0.0545   0.0195   1.0000  98.5872 201.0000
   9.400   1.2337   0.01687  -0.00716  -0.0538   0.0195   1.0000  98.5831 201.0000
   9.500   1.2395   0.01709  -0.00716  -0.0531   0.0196   1.0000  98.5787 201.0000
   9.600   1.2524   0.01689  -0.00745  -0.0538   0.0155   1.0000  99.0315 201.0000
   9.700   1.2628   0.01685  -0.00764  -0.0539   0.0152   1.0000  99.0573 201.0000
   9.800   1.2707   0.01695  -0.00774  -0.0536   0.0150   1.0000  99.0830 201.0000
   9.900   1.2779   0.01709  -0.00781  -0.0531   0.0147   1.0000  99.1120 201.0000
  10.000   1.2848   0.01726  -0.00787  -0.0526   0.0144   1.0000  99.1445 201.0000
