
 ===================================================
  XFOIL Version 6.99
  Copyright (C) 2000   Mark Drela, Harold Youngren

  This software comes with ABSOLUTELY NO WARRANTY,
    subject to the GNU General Public License.

  Caveat computor
 ===================================================

 File  xfoil.def  not found

   QUIT    Exit program

  .OPER    Direct operating point(s)
  .MDES    Complex mapping design routine
  .QDES    Surface speed design routine
  .GDES    Geometry design routine

   SAVE f  Write airfoil to labeled coordinate file
   PSAV f  Write airfoil to plain coordinate file
   ISAV f  Write airfoil to ISES coordinate file
   MSAV f  Write airfoil to MSES coordinate file
   REVE    Reverse written-airfoil node ordering
   DELI i  Change written-airfoil file delimiters

   LOAD f  Read buffer airfoil from coordinate file
   NACA i  Set NACA 4,5-digit airfoil and buffer airfoil
   INTE    Set buffer airfoil by interpolating two airfoils
   NORM    Buffer airfoil normalization toggle
   HALF    Halve the number of points in buffer airfoil
   XYCM rr Change CM reference location, currently  0.25000 0.00000

   BEND    Display structural properties of current airfoil

   PCOP    Set current-airfoil panel nodes directly from buffer airfoil points
   PANE    Set current-airfoil panel nodes ( 160 ) based on curvature
  .PPAR    Show/change paneling

  .PLOP    Plotting options

   WDEF f  Write  current-settings file
   RDEF f  Reread current-settings file
   NAME s  Specify new airfoil name
   NINC    Increment name version number

   Z       Zoom    | (available in all menus)
   U       Unzoom  | 

 XFOIL   c>  
 XFOIL   c>  
 Plain airfoil file

Enter airfoil name   s>  
 Number of input coordinate points: 201
 Counterclockwise ordering
 Max thickness =     0.120156  at x =   0.286
 Max camber    =     0.038445  at x =   0.410

  LE  x,y  =  -0.00025   0.00263  |   Chord =   1.00025
  TE  x,y  =   1.00000   0.00000  |

 Current airfoil nodes set from buffer airfoil nodes ( 201 )

 WARNING: Poor input coordinate distribution
          Excessive panel angle   61.8  at i = 101
          Repaneling with PANE and/or PPAR suggested
           (doing GDES,CADD before repaneling _may_
            improve excessively coarse LE spacing

 XFOIL   c>   ...............................................

  G raphics-enable flag:        T
  S ize of plot object          10.00"
  A spect ratio of plot object   0.5500
  P age dimensions              11.00 x  8.50"
  M argins from page edges       0.00",  0.00"
  F ont size (relative)          0.0150
  W indow/screen size fraction   0.8000
  B lowup input method:        Cursor    
  O rientation of plot:        Landscape 
  C olor PostScript output?     T
  L ine colors for top,bottom    8  3

      Option, Value   (or <Return>)    c>   ...............................................

  G raphics-enable flag:        F
  S ize of plot object          10.00"
  A spect ratio of plot object   0.5500
  P age dimensions              11.00 x  8.50"
  M argins from page edges       0.00",  0.00"
  F ont size (relative)          0.0150
  W indow/screen size fraction   0.8000
  B lowup input method:        Cursor    
  O rientation of plot:        Landscape 
  C olor PostScript output?     T
  L ine colors for top,bottom    8  3

      Option, Value   (or <Return>)    c>  
 XFOIL   c>  
.OPERi   c>  
 M  =    0.0000
 Re =  0.1232E+07

.OPERv   c>  
.OPERv   c>  
 Polar  1 newly created for accumulation
 Airfoil archived with polar:                                                 

Enter  polar save filename  OR  <return> for no file   s>  
 New polar save file available

Enter  polar dump filename  OR  <return> for no file   s>  
 New polar dump file available

 Polar accumulation enabled

.OPERva   c>   Calculating unit vorticity distributions ...
 Calculating wake trajectory ...
 Calculating source influence matrix ...

 Solving BL system ...

 Initializing BL ...
    side            1  ...
 MRCHUE: Inverse mode at  51     Hk =   3.800
 MRCHUE: Inverse mode at  53     Hk =   3.800
 MRCHUE: Inverse mode at  55     Hk =   3.800
 MRCHUE: Inverse mode at  58     Hk =   3.800
 MRCHUE: Inverse mode at  60     Hk =   3.800
 MRCHUE: Inverse mode at  61     Hk =   2.500
 MRCHUE: Inverse mode at 101     Hk =   2.500
    side            2  ...
 MRCHUE: Inverse mode at   4     Hk =  10.000
 MRCHUE: Inverse mode at   5     Hk =   2.500
 MRCHUE: Inverse mode at 102     Hk =   2.500

 Side 1  free  transition at x/c =  0.5966   61
 Side 2  free  transition at x/c =  0.0305    5

   1   rms: 0.3291E+00   max: -.7006E+01   C at   61  1   RLX: 0.071
       a = -2.000      CL =  0.2741
      Cm = -0.1063     CD =  0.00703   =>   CDf =  0.00655    CDp =  0.00048

 Side 1  free  transition at x/c =  0.6000   61
 Side 2  free  transition at x/c =  0.0308    5

   2   rms: 0.1112E+00   max: -.8448E+00   T at   61  1   RLX: 0.592
       a = -2.000      CL =  0.2070
      Cm = -0.0896     CD =  0.00752   =>   CDf =  0.00657    CDp =  0.00094

 Side 1  free  transition at x/c =  0.6796   69
 Side 2  free  transition at x/c =  0.0340    5

   3   rms: 0.8796E-01   max: -.9603E+00   T at    5  2   RLX: 0.521
       a = -2.000      CL =  0.2152
      Cm = -0.0911     CD =  0.00745   =>   CDf =  0.00626    CDp =  0.00119

 Side 1  free  transition at x/c =  0.6688   68
 Side 2  free  transition at x/c =  0.0558    7

   4   rms: 0.7882E+00   max: -.2224E+02   C at    7  2   RLX: 0.022
       a = -2.000      CL =  0.2153
      Cm = -0.0904     CD =  0.00733   =>   CDf =  0.00615    CDp =  0.00118

 Side 1  free  transition at x/c =  0.6693   68
 Side 2  free  transition at x/c =  0.0563    7

   5   rms: 0.2518E+00   max: -.6665E+01   C at    7  2   RLX: 0.075
       a = -2.000      CL =  0.2184
      Cm = -0.0908     CD =  0.00733   =>   CDf =  0.00614    CDp =  0.00119

 Side 1  free  transition at x/c =  0.6706   68
 Side 2  free  transition at x/c =  0.0613    8

   6   rms: 0.3592E+00   max: -.8997E+01   C at    8  2   RLX: 0.056
       a = -2.000      CL =  0.2199
      Cm = -0.0910     CD =  0.00730   =>   CDf =  0.00612    CDp =  0.00117

 Side 1  free  transition at x/c =  0.6717   68
 Side 2  free  transition at x/c =  0.0659    8

   7   rms: 0.6519E+00   max: -.1795E+02   C at    8  2   RLX: 0.028
       a = -2.000      CL =  0.2205
      Cm = -0.0912     CD =  0.00727   =>   CDf =  0.00609    CDp =  0.00119

 Side 1  free  transition at x/c =  0.6721   68
 Side 2  free  transition at x/c =  0.0710    9

   8   rms: 0.7972E+00   max: -.2127E+02   C at    9  2   RLX: 0.024
       a = -2.000      CL =  0.2214
      Cm = -0.0912     CD =  0.00724   =>   CDf =  0.00606    CDp =  0.00118

 Side 1  free  transition at x/c =  0.6719   68
 Side 2  free  transition at x/c =  0.0769    9

   9   rms: 0.1266E+01   max: -.3480E+02   C at    9  2   RLX: 0.014
       a = -2.000      CL =  0.2214
      Cm = -0.0912     CD =  0.00726   =>   CDf =  0.00606    CDp =  0.00120

 Side 1  free  transition at x/c =  0.6721   68
 Side 2  free  transition at x/c =  0.0789   10

  10   rms: 0.6190E+00   max: -.1470E+02   C at   10  2   RLX: 0.034
       a = -2.000      CL =  0.2218
      Cm = -0.0914     CD =  0.00722   =>   CDf =  0.00605    CDp =  0.00117

 Side 1  free  transition at x/c =  0.6728   69
 Side 2  free  transition at x/c =  0.0846   10

  11   rms: 0.5507E+00   max: -.1503E+02   C at   10  2   RLX: 0.033
       a = -2.000      CL =  0.2228
      Cm = -0.0916     CD =  0.00720   =>   CDf =  0.00602    CDp =  0.00118

 Side 1  free  transition at x/c =  0.6733   69
 Side 2  free  transition at x/c =  0.0907   11

  12   rms: 0.3067E+00   max: -.7181E+01   C at   11  2   RLX: 0.070
       a = -2.000      CL =  0.2243
      Cm = -0.0921     CD =  0.00714   =>   CDf =  0.00599    CDp =  0.00116

 Side 1  free  transition at x/c =  0.6744   69
 Side 2  free  transition at x/c =  0.0960   11

  13   rms: 0.1033E+00   max: -.2166E+01   C at   11  2   RLX: 0.231
       a = -2.000      CL =  0.2309
      Cm = -0.0937     CD =  0.00711   =>   CDf =  0.00596    CDp =  0.00115

 Side 1  free  transition at x/c =  0.6780   69
 Side 2  free  transition at x/c =  0.1103   13

  14   rms: 0.5883E-01   max: -.9369E+00   C at   13  2   RLX: 0.534
       a = -2.000      CL =  0.2419
      Cm = -0.0968     CD =  0.00703   =>   CDf =  0.00587    CDp =  0.00116

 Side 1  free  transition at x/c =  0.6862   70
 Side 2  free  transition at x/c =  0.1096   13

  15   rms: 0.2419E-01   max: -.4269E+00   C at   70  1
       a = -2.000      CL =  0.2553
      Cm = -0.1001     CD =  0.00707   =>   CDf =  0.00582    CDp =  0.00125

 Side 1  free  transition at x/c =  0.6927   71
 Side 2  free  transition at x/c =  0.1054   12

  16   rms: 0.1047E-01   max: -.1946E+00   C at   71  1
       a = -2.000      CL =  0.2553
      Cm = -0.1001     CD =  0.00709   =>   CDf =  0.00582    CDp =  0.00127

 Side 1  free  transition at x/c =  0.6953   71
 Side 2  free  transition at x/c =  0.1054   12

  17   rms: 0.9677E-03   max: 0.1895E-01   C at   71  1
       a = -2.000      CL =  0.2553
      Cm = -0.1001     CD =  0.00710   =>   CDf =  0.00578    CDp =  0.00131

 Side 1  free  transition at x/c =  0.6950   71
 Side 2  free  transition at x/c =  0.1054   12

  18   rms: 0.6699E-05   max: -.8273E-04   D at   73  1
       a = -2.000      CL =  0.2553
      Cm = -0.1001     CD =  0.00710   =>   CDf =  0.00579    CDp =  0.00131
      9.000    3.4652   0.007095   0.000000   0.000000   0.000000    0.6950     #

 Point added to stored polar  1
 Point written to save file  /home/nesd/tmp/dynamicas/python/users/a/ASTRO/r_
 Point written to dump file /home/nesd/tmp/dynamicas/python/users/a/ASTRO/r_
 Calculating wake trajectory ...
 Calculating source influence matrix ...

 Solving BL system ...

 Side 1  free  transition at x/c =  0.6950   71
 Side 2  free  transition at x/c =  0.1054   12

   1   rms: 0.1907E-01   max: -.3454E+00   C at   12  2
       a = -1.900      CL =  0.2652
      Cm = -0.0998     CD =  0.00709   =>   CDf =  0.00579    CDp =  0.00131

 Side 1  free  transition at x/c =  0.6902   70
 Side 2  free  transition at x/c =  0.1108   13

   2   rms: 0.2826E-02   max: -.6597E-01   C at   13  2
       a = -1.900      CL =  0.2653
      Cm = -0.0999     CD =  0.00708   =>   CDf =  0.00578    CDp =  0.00129

 Side 1  free  transition at x/c =  0.6901   70
 Side 2  free  transition at x/c =  0.1116   13

   3   rms: 0.1983E-04   max: 0.3878E-03   C at   13  2
       a = -1.900      CL =  0.2653
      Cm = -0.0999     CD =  0.00708   =>   CDf =  0.00578    CDp =  0.00130
      9.000    3.4733   0.007075   0.000000   0.000000   0.000000    0.6901     #

 Point added to stored polar  1
 Point written to save file  /home/nesd/tmp/dynamicas/python/users/a/ASTRO/r_
 Point written to dump file /home/nesd/tmp/dynamicas/python/users/a/ASTRO/r_
 Calculating wake trajectory ...
 Calculating source influence matrix ...

 Solving BL system ...

 Side 1  free  transition at x/c =  0.6901   70
 Side 2  free  transition at x/c =  0.1116   13

   1   rms: 0.2441E-01   max: -.5124E+00   C at   13  2   RLX: 0.976
       a = -1.800      CL =  0.2752
      Cm = -0.0997     CD =  0.00704   =>   CDf =  0.00578    CDp =  0.00126

 Side 1  free  transition at x/c =  0.6843   70
 Side 2  free  transition at x/c =  0.1168   13

   2   rms: 0.6137E-02   max: -.1581E+00   C at   13  2
       a = -1.800      CL =  0.2753
      Cm = -0.0997     CD =  0.00706   =>   CDf =  0.00578    CDp =  0.00127

 Side 1  free  transition at x/c =  0.6848   70
 Side 2  free  transition at x/c =  0.1172   14

   3   rms: 0.5172E-02   max: -.7842E-01   C at   14  2
       a = -1.800      CL =  0.2753
      Cm = -0.0997     CD =  0.00705   =>   CDf =  0.00578    CDp =  0.00127

 Side 1  free  transition at x/c =  0.6848   70
 Side 2  free  transition at x/c =  0.1185   14

   4   rms: 0.4351E-03   max: 0.9147E-02   C at   14  2
       a = -1.800      CL =  0.2753
      Cm = -0.0997     CD =  0.00705   =>   CDf =  0.00577    CDp =  0.00128

 Side 1  free  transition at x/c =  0.6848   70
 Side 2  free  transition at x/c =  0.1184   14

   5   rms: 0.1472E-05   max: -.6964E-05   D at   15  2
       a = -1.800      CL =  0.2753
      Cm = -0.0997     CD =  0.00705   =>   CDf =  0.00577    CDp =  0.00128
      9.000    3.4791   0.007054   0.000000   0.000000   0.000000    0.6848     #

 Point added to stored polar  1
 Point written to save file  /home/nesd/tmp/dynamicas/python/users/a/ASTRO/r_
 Point written to dump file /home/nesd/tmp/dynamicas/python/users/a/ASTRO/r_
 Calculating wake trajectory ...
 Calculating source influence matrix ...

 Solving BL system ...

 Side 1  free  transition at x/c =  0.6848   70
 Side 2  free  transition at x/c =  0.1184   14

   1   rms: 0.2303E-01   max: -.3760E+00   C at   14  2
       a = -1.700      CL =  0.2851
      Cm = -0.0994     CD =  0.00703   =>   CDf =  0.00577    CDp =  0.00126

 Side 1  free  transition at x/c =  0.6798   69
 Side 2  free  transition at x/c =  0.1241   14

   2   rms: 0.2750E-02   max: -.6667E-01   C at   14  2
       a = -1.700      CL =  0.2854
      Cm = -0.0995     CD =  0.00704   =>   CDf =  0.00577    CDp =  0.00127

 Side 1  free  transition at x/c =  0.6797   69
 Side 2  free  transition at x/c =  0.1253   14

   3   rms: 0.6762E-04   max: -.1694E-02   C at   14  2
       a = -1.700      CL =  0.2854
      Cm = -0.0995     CD =  0.00704   =>   CDf =  0.00577    CDp =  0.00127
      9.000    3.4824   0.007042   0.000000   0.000000   0.000000    0.6797     #

 Point added to stored polar  1
 Point written to save file  /home/nesd/tmp/dynamicas/python/users/a/ASTRO/r_
 Point written to dump file /home/nesd/tmp/dynamicas/python/users/a/ASTRO/r_
 Calculating wake trajectory ...
 Calculating source influence matrix ...

 Solving BL system ...

 Side 1  free  transition at x/c =  0.6797   69
 Side 2  free  transition at x/c =  0.1253   14

   1   rms: 0.1353E-01   max: -.1911E+00   C at   14  2
       a = -1.600      CL =  0.2959
      Cm = -0.0993     CD =  0.00703   =>   CDf =  0.00577    CDp =  0.00126

 Side 1  free  transition at x/c =  0.6722   68
 Side 2  free  transition at x/c =  0.1349   15

   2   rms: 0.1454E-01   max: 0.3569E+00   C at   15  2
       a = -1.600      CL =  0.2953
      Cm = -0.0992     CD =  0.00703   =>   CDf =  0.00576    CDp =  0.00127

 Side 1  free  transition at x/c =  0.6723   69
 Side 2  free  transition at x/c =  0.1297   15

   3   rms: 0.7680E-02   max: -.1443E+00   C at   69  1
       a = -1.600      CL =  0.2955
      Cm = -0.0993     CD =  0.00703   =>   CDf =  0.00580    CDp =  0.00123

 Side 1  free  transition at x/c =  0.6736   69
 Side 2  free  transition at x/c =  0.1300   15

   4   rms: 0.4146E-03   max: 0.7930E-02   C at   69  1
       a = -1.600      CL =  0.2955
      Cm = -0.0993     CD =  0.00704   =>   CDf =  0.00577    CDp =  0.00127

 Side 1  free  transition at x/c =  0.6735   69
 Side 2  free  transition at x/c =  0.1300   15

   5   rms: 0.2054E-05   max: -.1025E-04   D at   70  1
       a = -1.600      CL =  0.2955
      Cm = -0.0993     CD =  0.00704   =>   CDf =  0.00577    CDp =  0.00126
      9.000    3.4773   0.007035   0.000000   0.000000   0.000000    0.6735     #

 Point added to stored polar  1
 Point written to save file  /home/nesd/tmp/dynamicas/python/users/a/ASTRO/r_
 Point written to dump file /home/nesd/tmp/dynamicas/python/users/a/ASTRO/r_
 Calculating wake trajectory ...
 Calculating source influence matrix ...

 Solving BL system ...

 Side 1  free  transition at x/c =  0.6735   69
 Side 2  free  transition at x/c =  0.1300   15

   1   rms: 0.2149E-01   max: -.3344E+00   C at   15  2
       a = -1.500      CL =  0.3051
      Cm = -0.0990     CD =  0.00703   =>   CDf =  0.00577    CDp =  0.00126

 Side 1  free  transition at x/c =  0.6664   68
 Side 2  free  transition at x/c =  0.1348   15

   2   rms: 0.2788E-02   max: -.6052E-01   C at   15  2
       a = -1.500      CL =  0.3053
      Cm = -0.0990     CD =  0.00703   =>   CDf =  0.00578    CDp =  0.00125

 Side 1  free  transition at x/c =  0.6669   68
 Side 2  free  transition at x/c =  0.1354   15

   3   rms: 0.2749E-04   max: -.5432E-03   C at   68  1
       a = -1.500      CL =  0.3053
      Cm = -0.0990     CD =  0.00703   =>   CDf =  0.00577    CDp =  0.00126
      9.000    3.4568   0.007030   0.000000   0.000000   0.000000    0.6669     #

 Point added to stored polar  1
 Point written to save file  /home/nesd/tmp/dynamicas/python/users/a/ASTRO/r_
 Point written to dump file /home/nesd/tmp/dynamicas/python/users/a/ASTRO/r_
 Calculating wake trajectory ...
 Calculating source influence matrix ...

 Solving BL system ...

 Side 1  free  transition at x/c =  0.6669   68
 Side 2  free  transition at x/c =  0.1354   15

   1   rms: 0.2522E-01   max: -.4949E+00   C at   15  2
       a = -1.400      CL =  0.3150
      Cm = -0.0987     CD =  0.00703   =>   CDf =  0.00577    CDp =  0.00126

 Side 1  free  transition at x/c =  0.6592   67
 Side 2  free  transition at x/c =  0.1389   16

   2   rms: 0.1092E-01   max: -.2153E+00   C at   16  2
       a = -1.400      CL =  0.3149
      Cm = -0.0987     CD =  0.00703   =>   CDf =  0.00580    CDp =  0.00123

 Side 1  free  transition at x/c =  0.6598   67
 Side 2  free  transition at x/c =  0.1419   16

   3   rms: 0.2334E-03   max: -.5212E-02   C at   16  2
       a = -1.400      CL =  0.3150
      Cm = -0.0987     CD =  0.00703   =>   CDf =  0.00579    CDp =  0.00125

 Side 1  free  transition at x/c =  0.6597   67
 Side 2  free  transition at x/c =  0.1421   16

   4   rms: 0.8665E-06   max: -.2002E-04   C at   16  2
       a = -1.400      CL =  0.3150
      Cm = -0.0987     CD =  0.00703   =>   CDf =  0.00579    CDp =  0.00125
      9.000    3.4488   0.007035   0.000000   0.000000   0.000000    0.6597     #

 Point added to stored polar  1
 Point written to save file  /home/nesd/tmp/dynamicas/python/users/a/ASTRO/r_
 Point written to dump file /home/nesd/tmp/dynamicas/python/users/a/ASTRO/r_
 Calculating wake trajectory ...
 Calculating source influence matrix ...

 Solving BL system ...

 Side 1  free  transition at x/c =  0.6597   67
 Side 2  free  transition at x/c =  0.1421   16

   1   rms: 0.1714E-01   max: -.2257E+00   C at   16  2
       a = -1.300      CL =  0.3251
      Cm = -0.0985     CD =  0.00703   =>   CDf =  0.00579    CDp =  0.00125

 Side 1  free  transition at x/c =  0.6494   66
 Side 2  free  transition at x/c =  0.1463   16

   2   rms: 0.5155E-02   max: -.1080E+00   C at   66  1
       a = -1.300      CL =  0.3246
      Cm = -0.0984     CD =  0.00706   =>   CDf =  0.00583    CDp =  0.00123

 Side 1  free  transition at x/c =  0.6511   66
 Side 2  free  transition at x/c =  0.1467   16

   3   rms: 0.8160E-04   max: -.1596E-02   D at   68  1
       a = -1.300      CL =  0.3247
      Cm = -0.0984     CD =  0.00706   =>   CDf =  0.00581    CDp =  0.00125
      9.000    3.4276   0.007059   0.000000   0.000000   0.000000    0.6511     #

 Point added to stored polar  1
 Point written to save file  /home/nesd/tmp/dynamicas/python/users/a/ASTRO/r_
 Point written to dump file /home/nesd/tmp/dynamicas/python/users/a/ASTRO/r_
 Calculating wake trajectory ...
 Calculating source influence matrix ...

 Solving BL system ...

 Side 1  free  transition at x/c =  0.6511   66
 Side 2  free  transition at x/c =  0.1467   16

   1   rms: 0.1830E-01   max: 0.3361E+00   C at   66  1
       a = -1.200      CL =  0.3346
      Cm = -0.0982     CD =  0.00709   =>   CDf =  0.00581    CDp =  0.00127

 Side 1  free  transition at x/c =  0.6419   65
 Side 2  free  transition at x/c =  0.1564   17

   2   rms: 0.1221E-01   max: -.2430E+00   C at   17  2
       a = -1.200      CL =  0.3334
      Cm = -0.0980     CD =  0.00707   =>   CDf =  0.00584    CDp =  0.00123

 Side 1  free  transition at x/c =  0.6462   66
 Side 2  free  transition at x/c =  0.1503   17

   3   rms: 0.1190E-01   max: 0.2503E+00   C at   66  1
       a = -1.200      CL =  0.3341
      Cm = -0.0981     CD =  0.00707   =>   CDf =  0.00581    CDp =  0.00127

 Side 1  free  transition at x/c =  0.6432   66
 Side 2  free  transition at x/c =  0.1509   17

   4   rms: 0.2551E-03   max: 0.3213E-02   C at   17  2
       a = -1.200      CL =  0.3340
      Cm = -0.0981     CD =  0.00708   =>   CDf =  0.00584    CDp =  0.00124

 Side 1  free  transition at x/c =  0.6432   66
 Side 2  free  transition at x/c =  0.1509   17

   5   rms: 0.1750E-05   max: -.4505E-05   T at   78  2
       a = -1.200      CL =  0.3340
      Cm = -0.0981     CD =  0.00708   =>   CDf =  0.00584    CDp =  0.00124
      9.000    3.3868   0.007082   0.000000   0.000000   0.000000    0.6432     #

 Point added to stored polar  1
 Point written to save file  /home/nesd/tmp/dynamicas/python/users/a/ASTRO/r_
 Point written to dump file /home/nesd/tmp/dynamicas/python/users/a/ASTRO/r_
 Calculating wake trajectory ...
 Calculating source influence matrix ...

 Solving BL system ...

 Side 1  free  transition at x/c =  0.6432   66
 Side 2  free  transition at x/c =  0.1509   17

   1   rms: 0.2486E-01   max: -.3321E+00   C at   17  2
       a = -1.100      CL =  0.3429
      Cm = -0.0976     CD =  0.00712   =>   CDf =  0.00584    CDp =  0.00128

 Side 1  free  transition at x/c =  0.6338   65
 Side 2  free  transition at x/c =  0.1556   17

   2   rms: 0.3238E-02   max: -.5608E-01   C at   17  2
       a = -1.100      CL =  0.3438
      Cm = -0.0978     CD =  0.00708   =>   CDf =  0.00584    CDp =  0.00124

 Side 1  free  transition at x/c =  0.6330   65
 Side 2  free  transition at x/c =  0.1560   17

   3   rms: 0.3442E-04   max: -.7807E-03   D at   67  1
       a = -1.100      CL =  0.3438
      Cm = -0.0978     CD =  0.00708   =>   CDf =  0.00584    CDp =  0.00124
      9.000    3.3835   0.007081   0.000000   0.000000   0.000000    0.6330     #

 Point added to stored polar  1
 Point written to save file  /home/nesd/tmp/dynamicas/python/users/a/ASTRO/r_
 Point written to dump file /home/nesd/tmp/dynamicas/python/users/a/ASTRO/r_
 Calculating wake trajectory ...
 Calculating source influence matrix ...

 Solving BL system ...

 Side 1  free  transition at x/c =  0.6330   65
 Side 2  free  transition at x/c =  0.1560   17

   1   rms: 0.3072E-01   max: -.5986E+00   C at   17  2   RLX: 0.835
       a = -1.000      CL =  0.3515
      Cm = -0.0975     CD =  0.00710   =>   CDf =  0.00584    CDp =  0.00126

 Side 1  free  transition at x/c =  0.6246   64
 Side 2  free  transition at x/c =  0.1578   18

   2   rms: 0.1968E-01   max: -.3380E+00   C at   18  2
       a = -1.000      CL =  0.3529
      Cm = -0.0974     CD =  0.00709   =>   CDf =  0.00589    CDp =  0.00120

 Side 1  free  transition at x/c =  0.6242   64
 Side 2  free  transition at x/c =  0.1645   18

   3   rms: 0.9272E-03   max: 0.1881E-01   C at   18  2
       a = -1.000      CL =  0.3530
      Cm = -0.0974     CD =  0.00711   =>   CDf =  0.00586    CDp =  0.00125

 Side 1  free  transition at x/c =  0.6242   64
 Side 2  free  transition at x/c =  0.1641   18

   4   rms: 0.4839E-05   max: -.1018E-03   D at   19  2
       a = -1.000      CL =  0.3530
      Cm = -0.0974     CD =  0.00711   =>   CDf =  0.00586    CDp =  0.00124
      9.000    3.3805   0.007107   0.000000   0.000000   0.000000    0.6242     #

 Point added to stored polar  1
 Point written to save file  /home/nesd/tmp/dynamicas/python/users/a/ASTRO/r_
 Point written to dump file /home/nesd/tmp/dynamicas/python/users/a/ASTRO/r_
 Calculating wake trajectory ...
 Calculating source influence matrix ...

 Solving BL system ...

 Side 1  free  transition at x/c =  0.6242   64
 Side 2  free  transition at x/c =  0.1641   18

   1   rms: 0.2485E-01   max: 0.3983E+00   C at   64  1
       a = -0.900      CL =  0.3620
      Cm = -0.0970     CD =  0.00716   =>   CDf =  0.00586    CDp =  0.00129

 Side 1  free  transition at x/c =  0.6153   63
 Side 2  free  transition at x/c =  0.1737   19

   2   rms: 0.6942E-02   max: 0.1376E+00   C at   19  2
       a = -0.900      CL =  0.3626
      Cm = -0.0972     CD =  0.00711   =>   CDf =  0.00586    CDp =  0.00125

 Side 1  free  transition at x/c =  0.6145   63
 Side 2  free  transition at x/c =  0.1701   19

   3   rms: 0.6529E-03   max: -.1388E-01   C at   19  2
       a = -0.900      CL =  0.3626
      Cm = -0.0972     CD =  0.00712   =>   CDf =  0.00588    CDp =  0.00124

 Side 1  free  transition at x/c =  0.6145   63
 Side 2  free  transition at x/c =  0.1703   19

   4   rms: 0.1951E-05   max: -.3886E-04   D at   20  2
       a = -0.900      CL =  0.3626
      Cm = -0.0972     CD =  0.00712   =>   CDf =  0.00588    CDp =  0.00124
      9.000    3.3766   0.007121   0.000000   0.000000   0.000000    0.6145     #

 Point added to stored polar  1
 Point written to save file  /home/nesd/tmp/dynamicas/python/users/a/ASTRO/r_
 Point written to dump file /home/nesd/tmp/dynamicas/python/users/a/ASTRO/r_
 Calculating wake trajectory ...
 Calculating source influence matrix ...

 Solving BL system ...

 Side 1  free  transition at x/c =  0.6145   63
 Side 2  free  transition at x/c =  0.1703   19

   1   rms: 0.2487E-01   max: -.3472E+00   C at   19  2
       a = -0.800      CL =  0.3720
      Cm = -0.0968     CD =  0.00714   =>   CDf =  0.00588    CDp =  0.00126

 Side 1  free  transition at x/c =  0.6027   62
 Side 2  free  transition at x/c =  0.1753   19

   2   rms: 0.5122E-02   max: -.8500E-01   C at   62  1
       a = -0.800      CL =  0.3720
      Cm = -0.0968     CD =  0.00715   =>   CDf =  0.00592    CDp =  0.00123

 Side 1  free  transition at x/c =  0.6040   62
 Side 2  free  transition at x/c =  0.1762   19

   3   rms: 0.4201E-04   max: -.7752E-03   C at   62  1
       a = -0.800      CL =  0.3720
      Cm = -0.0968     CD =  0.00715   =>   CDf =  0.00590    CDp =  0.00125
      9.000    3.3578   0.007149   0.000000   0.000000   0.000000    0.6040     #

 Point added to stored polar  1
 Point written to save file  /home/nesd/tmp/dynamicas/python/users/a/ASTRO/r_
 Point written to dump file /home/nesd/tmp/dynamicas/python/users/a/ASTRO/r_
 Calculating wake trajectory ...
 Calculating source influence matrix ...

 Solving BL system ...

 Side 1  free  transition at x/c =  0.6041   62
 Side 2  free  transition at x/c =  0.1762   19

   1   rms: 0.2477E-01   max: 0.4216E+00   C at   62  1
       a = -0.700      CL =  0.3812
      Cm = -0.0964     CD =  0.00720   =>   CDf =  0.00590    CDp =  0.00129

 Side 1  free  transition at x/c =  0.5948   61
 Side 2  free  transition at x/c =  0.1824   20

   2   rms: 0.1772E-02   max: 0.2037E-01   C at   20  2
       a = -0.700      CL =  0.3813
      Cm = -0.0965     CD =  0.00718   =>   CDf =  0.00593    CDp =  0.00125

 Side 1  free  transition at x/c =  0.5951   61
 Side 2  free  transition at x/c =  0.1821   20

   3   rms: 0.1383E-04   max: 0.2189E-03   D at   62  1
       a = -0.700      CL =  0.3813
      Cm = -0.0965     CD =  0.00718   =>   CDf =  0.00593    CDp =  0.00125
      9.000    3.3372   0.007175   0.000000   0.000000   0.000000    0.5951     #

 Point added to stored polar  1
 Point written to save file  /home/nesd/tmp/dynamicas/python/users/a/ASTRO/r_
 Point written to dump file /home/nesd/tmp/dynamicas/python/users/a/ASTRO/r_
 Calculating wake trajectory ...
 Calculating source influence matrix ...

 Solving BL system ...

 Side 1  free  transition at x/c =  0.5951   61
 Side 2  free  transition at x/c =  0.1821   20

   1   rms: 0.2548E-01   max: 0.3975E+00   C at   61  1
       a = -0.600      CL =  0.3905
      Cm = -0.0961     CD =  0.00721   =>   CDf =  0.00593    CDp =  0.00129

 Side 1  free  transition at x/c =  0.5865   60
 Side 2  free  transition at x/c =  0.1864   21

   2   rms: 0.3957E-02   max: -.6557E-01   C at   21  2
       a = -0.600      CL =  0.3911
      Cm = -0.0962     CD =  0.00719   =>   CDf =  0.00594    CDp =  0.00125

 Side 1  free  transition at x/c =  0.5859   60
 Side 2  free  transition at x/c =  0.1876   21

   3   rms: 0.2279E-03   max: 0.4645E-02   C at   21  2
       a = -0.600      CL =  0.3910
      Cm = -0.0962     CD =  0.00719   =>   CDf =  0.00594    CDp =  0.00125

 Side 1  free  transition at x/c =  0.5859   60
 Side 2  free  transition at x/c =  0.1875   21

   4   rms: 0.1026E-05   max: 0.9205E-05   C at   21  2
       a = -0.600      CL =  0.3910
      Cm = -0.0962     CD =  0.00719   =>   CDf =  0.00594    CDp =  0.00125
      9.000    3.3372   0.007194   0.000000   0.000000   0.000000    0.5859     #

 Point added to stored polar  1
 Point written to save file  /home/nesd/tmp/dynamicas/python/users/a/ASTRO/r_
 Point written to dump file /home/nesd/tmp/dynamicas/python/users/a/ASTRO/r_
 Calculating wake trajectory ...
 Calculating source influence matrix ...

 Solving BL system ...

 Side 1  free  transition at x/c =  0.5859   60
 Side 2  free  transition at x/c =  0.1875   21

   1   rms: 0.2282E-01   max: -.3198E+00   C at   21  2
       a = -0.500      CL =  0.4008
      Cm = -0.0960     CD =  0.00720   =>   CDf =  0.00594    CDp =  0.00126

 Side 1  free  transition at x/c =  0.5757   59
 Side 2  free  transition at x/c =  0.1930   21

   2   rms: 0.4493E-02   max: -.9050E-01   C at   59  1
       a = -0.500      CL =  0.4005
      Cm = -0.0959     CD =  0.00722   =>   CDf =  0.00597    CDp =  0.00125

 Side 1  free  transition at x/c =  0.5771   59
 Side 2  free  transition at x/c =  0.1936   21

   3   rms: 0.4885E-04   max: -.9664E-03   C at   59  1
       a = -0.500      CL =  0.4005
      Cm = -0.0959     CD =  0.00722   =>   CDf =  0.00596    CDp =  0.00126
      9.000    3.3267   0.007218   0.000000   0.000000   0.000000    0.5771     #

 Point added to stored polar  1
 Point written to save file  /home/nesd/tmp/dynamicas/python/users/a/ASTRO/r_
 Point written to dump file /home/nesd/tmp/dynamicas/python/users/a/ASTRO/r_
 Calculating wake trajectory ...
 Calculating source influence matrix ...

 Solving BL system ...

 Side 1  free  transition at x/c =  0.5771   59
 Side 2  free  transition at x/c =  0.1936   21

   1   rms: 0.2763E-01   max: -.4576E+00   C at   21  2
       a = -0.400      CL =  0.4100
      Cm = -0.0956     CD =  0.00725   =>   CDf =  0.00596    CDp =  0.00129

 Side 1  free  transition at x/c =  0.5704   58
 Side 2  free  transition at x/c =  0.1983   22

   2   rms: 0.8018E-02   max: -.1835E+00   C at   22  2
       a = -0.400      CL =  0.4100
      Cm = -0.0956     CD =  0.00724   =>   CDf =  0.00598    CDp =  0.00126

 Side 1  free  transition at x/c =  0.5703   58
 Side 2  free  transition at x/c =  0.2007   22

   3   rms: 0.1661E-03   max: -.3745E-02   C at   22  2
       a = -0.400      CL =  0.4100
      Cm = -0.0956     CD =  0.00724   =>   CDf =  0.00597    CDp =  0.00127

 Side 1  free  transition at x/c =  0.5703   58
 Side 2  free  transition at x/c =  0.2008   22

   4   rms: 0.7218E-06   max: -.3762E-05   D at   26  2
       a = -0.400      CL =  0.4100
      Cm = -0.0956     CD =  0.00724   =>   CDf =  0.00597    CDp =  0.00127
      9.000    3.3253   0.007242   0.000000   0.000000   0.000000    0.5703     #

 Point added to stored polar  1
 Point written to save file  /home/nesd/tmp/dynamicas/python/users/a/ASTRO/r_
 Point written to dump file /home/nesd/tmp/dynamicas/python/users/a/ASTRO/r_
 Calculating wake trajectory ...
 Calculating source influence matrix ...

 Solving BL system ...

 Side 1  free  transition at x/c =  0.5703   58
 Side 2  free  transition at x/c =  0.2008   22

   1   rms: 0.2090E-01   max: -.4214E+00   C at   22  2
       a = -0.300      CL =  0.4204
      Cm = -0.0955     CD =  0.00723   =>   CDf =  0.00597    CDp =  0.00126

 Side 1  free  transition at x/c =  0.5613   57
 Side 2  free  transition at x/c =  0.2062   23

   2   rms: 0.6767E-02   max: -.1184E+00   C at   23  2
       a = -0.300      CL =  0.4199
      Cm = -0.0954     CD =  0.00726   =>   CDf =  0.00599    CDp =  0.00126

 Side 1  free  transition at x/c =  0.5620   58
 Side 2  free  transition at x/c =  0.2081   23

   3   rms: 0.3490E-02   max: -.7028E-01   C at   58  1
       a = -0.300      CL =  0.4200
      Cm = -0.0954     CD =  0.00725   =>   CDf =  0.00598    CDp =  0.00127

 Side 1  free  transition at x/c =  0.5626   58
 Side 2  free  transition at x/c =  0.2080   23

   4   rms: 0.3177E-04   max: 0.5020E-03   C at   58  1
       a = -0.300      CL =  0.4200
      Cm = -0.0954     CD =  0.00725   =>   CDf =  0.00597    CDp =  0.00128
      9.000    3.3360   0.007251   0.000000   0.000000   0.000000    0.5626     #

 Point added to stored polar  1
 Point written to save file  /home/nesd/tmp/dynamicas/python/users/a/ASTRO/r_
 Point written to dump file /home/nesd/tmp/dynamicas/python/users/a/ASTRO/r_
 Calculating wake trajectory ...
 Calculating source influence matrix ...

 Solving BL system ...

 Side 1  free  transition at x/c =  0.5626   58
 Side 2  free  transition at x/c =  0.2080   23

   1   rms: 0.2443E-01   max: -.4207E+00   C at   23  2
       a = -0.200      CL =  0.4296
      Cm = -0.0951     CD =  0.00727   =>   CDf =  0.00597    CDp =  0.00130

 Side 1  free  transition at x/c =  0.5562   57
 Side 2  free  transition at x/c =  0.2141   23

   2   rms: 0.4204E-02   max: -.1002E+00   C at   23  2
       a = -0.200      CL =  0.4299
      Cm = -0.0952     CD =  0.00726   =>   CDf =  0.00597    CDp =  0.00128

 Side 1  free  transition at x/c =  0.5561   57
 Side 2  free  transition at x/c =  0.2154   23

   3   rms: 0.6831E-04   max: -.1634E-02   C at   23  2
       a = -0.200      CL =  0.4299
      Cm = -0.0952     CD =  0.00726   =>   CDf =  0.00597    CDp =  0.00129
      9.000    3.3454   0.007258   0.000000   0.000000   0.000000    0.5561     #

 Point added to stored polar  1
 Point written to save file  /home/nesd/tmp/dynamicas/python/users/a/ASTRO/r_
 Point written to dump file /home/nesd/tmp/dynamicas/python/users/a/ASTRO/r_
 Calculating wake trajectory ...
 Calculating source influence matrix ...

 Solving BL system ...

 Side 1  free  transition at x/c =  0.5561   57
 Side 2  free  transition at x/c =  0.2155   23

   1   rms: 0.2558E-01   max: -.5155E+00   C at   23  2   RLX: 0.970
       a = -0.100      CL =  0.4396
      Cm = -0.0950     CD =  0.00727   =>   CDf =  0.00597    CDp =  0.00130

 Side 1  free  transition at x/c =  0.5508   56
 Side 2  free  transition at x/c =  0.2225   24

   2   rms: 0.2751E-02   max: -.6513E-01   C at   24  2
       a = -0.100      CL =  0.4398
      Cm = -0.0950     CD =  0.00727   =>   CDf =  0.00598    CDp =  0.00129

 Side 1  free  transition at x/c =  0.5508   56
 Side 2  free  transition at x/c =  0.2238   24

   3   rms: 0.1054E-03   max: -.2496E-02   C at   24  2
       a = -0.100      CL =  0.4398
      Cm = -0.0950     CD =  0.00727   =>   CDf =  0.00598    CDp =  0.00129

 Side 1  free  transition at x/c =  0.5508   56
 Side 2  free  transition at x/c =  0.2239   24

   4   rms: 0.2564E-06   max: -.1251E-05   C at   25  2
       a = -0.100      CL =  0.4398
      Cm = -0.0950     CD =  0.00727   =>   CDf =  0.00598    CDp =  0.00129
      9.000    3.3536   0.007274   0.000000   0.000000   0.000000    0.5508     #

 Point added to stored polar  1
 Point written to save file  /home/nesd/tmp/dynamicas/python/users/a/ASTRO/r_
 Point written to dump file /home/nesd/tmp/dynamicas/python/users/a/ASTRO/r_
 Calculating wake trajectory ...
 Calculating source influence matrix ...

 Solving BL system ...

 Side 1  free  transition at x/c =  0.5508   56
 Side 2  free  transition at x/c =  0.2239   24

   1   rms: 0.1548E-01   max: 0.2292E+00   C at   56  1
       a =  0.000      CL =  0.4501
      Cm = -0.0948     CD =  0.00729   =>   CDf =  0.00598    CDp =  0.00131

 Side 1  free  transition at x/c =  0.5456   56
 Side 2  free  transition at x/c =  0.2347   25

   2   rms: 0.6089E-02   max: 0.9767E-01   D at   24  2
       a =  0.000      CL =  0.4497
      Cm = -0.0948     CD =  0.00727   =>   CDf =  0.00597    CDp =  0.00130

 Side 1  free  transition at x/c =  0.5461   56
 Side 2  free  transition at x/c =  0.2296   25

   3   rms: 0.2695E-02   max: -.6082E-01   C at   25  2
       a =  0.000      CL =  0.4498
      Cm = -0.0948     CD =  0.00728   =>   CDf =  0.00598    CDp =  0.00130

 Side 1  free  transition at x/c =  0.5461   56
 Side 2  free  transition at x/c =  0.2303   25

   4   rms: 0.4022E-04   max: 0.7841E-03   C at   25  2
       a =  0.000      CL =  0.4498
      Cm = -0.0948     CD =  0.00728   =>   CDf =  0.00598    CDp =  0.00130
      9.000    3.3618   0.007280   0.000000   0.000000   0.000000    0.5461     #

 Point added to stored polar  1
 Point written to save file  /home/nesd/tmp/dynamicas/python/users/a/ASTRO/r_
 Point written to dump file /home/nesd/tmp/dynamicas/python/users/a/ASTRO/r_
 Calculating wake trajectory ...
 Calculating source influence matrix ...

 Solving BL system ...

 Side 1  free  transition at x/c =  0.5461   56
 Side 2  free  transition at x/c =  0.2303   25

   1   rms: 0.2420E-01   max: -.4760E+00   C at   25  2
       a =  0.100      CL =  0.4598
      Cm = -0.0946     CD =  0.00729   =>   CDf =  0.00598    CDp =  0.00131

 Side 1  free  transition at x/c =  0.5414   55
 Side 2  free  transition at x/c =  0.2362   26

   2   rms: 0.4469E-02   max: -.1005E+00   C at   26  2
       a =  0.100      CL =  0.4595
      Cm = -0.0945     CD =  0.00730   =>   CDf =  0.00599    CDp =  0.00131

 Side 1  free  transition at x/c =  0.5433   56
 Side 2  free  transition at x/c =  0.2377   26

   3   rms: 0.7970E-02   max: 0.1699E+00   C at   56  1
       a =  0.100      CL =  0.4597
      Cm = -0.0945     CD =  0.00729   =>   CDf =  0.00596    CDp =  0.00134

 Side 1  free  transition at x/c =  0.5418   56
 Side 2  free  transition at x/c =  0.2378   26

   4   rms: 0.3017E-03   max: 0.4889E-02   C at   56  1
       a =  0.100      CL =  0.4596
      Cm = -0.0945     CD =  0.00729   =>   CDf =  0.00598    CDp =  0.00132

 Side 1  free  transition at x/c =  0.5417   56
 Side 2  free  transition at x/c =  0.2378   26

   5   rms: 0.1773E-05   max: 0.1377E-04   C at   56  1
       a =  0.100      CL =  0.4596
      Cm = -0.0945     CD =  0.00729   =>   CDf =  0.00598    CDp =  0.00132
      9.000    3.3667   0.007295   0.000000   0.000000   0.000000    0.5417     #

 Point added to stored polar  1
 Point written to save file  /home/nesd/tmp/dynamicas/python/users/a/ASTRO/r_
 Point written to dump file /home/nesd/tmp/dynamicas/python/users/a/ASTRO/r_
 Calculating wake trajectory ...
 Calculating source influence matrix ...

 Solving BL system ...

 Side 1  free  transition at x/c =  0.5417   56
 Side 2  free  transition at x/c =  0.2378   26

   1   rms: 0.2162E-01   max: -.3873E+00   C at   26  2
       a =  0.200      CL =  0.4693
      Cm = -0.0943     CD =  0.00732   =>   CDf =  0.00598    CDp =  0.00134

 Side 1  free  transition at x/c =  0.5372   55
 Side 2  free  transition at x/c =  0.2438   26

   2   rms: 0.3751E-02   max: -.7330E-01   C at   26  2
       a =  0.200      CL =  0.4701
      Cm = -0.0944     CD =  0.00729   =>   CDf =  0.00597    CDp =  0.00132

 Side 1  free  transition at x/c =  0.5364   55
 Side 2  free  transition at x/c =  0.2467   27

   3   rms: 0.6391E-02   max: 0.1459E+00   C at   27  2
       a =  0.200      CL =  0.4701
      Cm = -0.0944     CD =  0.00729   =>   CDf =  0.00596    CDp =  0.00133

 Side 1  free  transition at x/c =  0.5363   55
 Side 2  free  transition at x/c =  0.2454   27

   4   rms: 0.1629E-03   max: 0.3157E-02   C at   27  2
       a =  0.200      CL =  0.4701
      Cm = -0.0944     CD =  0.00729   =>   CDf =  0.00597    CDp =  0.00132

 Side 1  free  transition at x/c =  0.5363   55
 Side 2  free  transition at x/c =  0.2453   27

   5   rms: 0.6235E-06   max: 0.5858E-05   C at   27  2
       a =  0.200      CL =  0.4701
      Cm = -0.0944     CD =  0.00729   =>   CDf =  0.00597    CDp =  0.00132
      9.000    3.3745   0.007293   0.000000   0.000000   0.000000    0.5363     #

 Point added to stored polar  1
 Point written to save file  /home/nesd/tmp/dynamicas/python/users/a/ASTRO/r_
 Point written to dump file /home/nesd/tmp/dynamicas/python/users/a/ASTRO/r_
 Calculating wake trajectory ...
 Calculating source influence matrix ...

 Solving BL system ...

 Side 1  free  transition at x/c =  0.5363   55
 Side 2  free  transition at x/c =  0.2453   27

   1   rms: 0.1995E-01   max: -.3380E+00   C at   27  2
       a =  0.300      CL =  0.4803
      Cm = -0.0943     CD =  0.00729   =>   CDf =  0.00597    CDp =  0.00132

 Side 1  free  transition at x/c =  0.5297   54
 Side 2  free  transition at x/c =  0.2514   27

   2   rms: 0.3387E-02   max: -.6601E-01   C at   54  1
       a =  0.300      CL =  0.4800
      Cm = -0.0942     CD =  0.00730   =>   CDf =  0.00597    CDp =  0.00133

 Side 1  free  transition at x/c =  0.5305   54
 Side 2  free  transition at x/c =  0.2520   27

   3   rms: 0.3486E-04   max: -.5276E-03   C at   27  2
       a =  0.300      CL =  0.4800
      Cm = -0.0942     CD =  0.00730   =>   CDf =  0.00596    CDp =  0.00134
      9.000    3.3728   0.007299   0.000000   0.000000   0.000000    0.5305     #

 Point added to stored polar  1
 Point written to save file  /home/nesd/tmp/dynamicas/python/users/a/ASTRO/r_
 Point written to dump file /home/nesd/tmp/dynamicas/python/users/a/ASTRO/r_
 Calculating wake trajectory ...
 Calculating source influence matrix ...

 Solving BL system ...

 Side 1  free  transition at x/c =  0.5305   54
 Side 2  free  transition at x/c =  0.2520   27

   1   rms: 0.2695E-01   max: -.5381E+00   C at   27  2   RLX: 0.929
       a =  0.400      CL =  0.4893
      Cm = -0.0940     CD =  0.00731   =>   CDf =  0.00596    CDp =  0.00134

 Side 1  free  transition at x/c =  0.5260   54
 Side 2  free  transition at x/c =  0.2566   28

   2   rms: 0.1270E-01   max: -.2899E+00   C at   28  2
       a =  0.400      CL =  0.4899
      Cm = -0.0940     CD =  0.00731   =>   CDf =  0.00597    CDp =  0.00133

 Side 1  free  transition at x/c =  0.5259   54
 Side 2  free  transition at x/c =  0.2605   28

   3   rms: 0.4145E-03   max: -.9540E-02   C at   28  2
       a =  0.400      CL =  0.4899
      Cm = -0.0940     CD =  0.00731   =>   CDf =  0.00596    CDp =  0.00135

 Side 1  free  transition at x/c =  0.5259   54
 Side 2  free  transition at x/c =  0.2607   28

   4   rms: 0.4981E-05   max: -.1190E-03   C at   28  2
       a =  0.400      CL =  0.4899
      Cm = -0.0940     CD =  0.00731   =>   CDf =  0.00596    CDp =  0.00135
      9.000    3.3652   0.007309   0.000000   0.000000   0.000000    0.5259     #

 Point added to stored polar  1
 Point written to save file  /home/nesd/tmp/dynamicas/python/users/a/ASTRO/r_
 Point written to dump file /home/nesd/tmp/dynamicas/python/users/a/ASTRO/r_
 Calculating wake trajectory ...
 Calculating source influence matrix ...

 Solving BL system ...

 Side 1  free  transition at x/c =  0.5259   54
 Side 2  free  transition at x/c =  0.2607   28

   1   rms: 0.2385E-01   max: -.4617E+00   C at   28  2
       a =  0.500      CL =  0.4998
      Cm = -0.0938     CD =  0.00733   =>   CDf =  0.00596    CDp =  0.00137

 Side 1  free  transition at x/c =  0.5216   54
 Side 2  free  transition at x/c =  0.2708   29

   2   rms: 0.3443E-02   max: 0.7148E-01   C at   29  2
       a =  0.500      CL =  0.4997
      Cm = -0.0938     CD =  0.00733   =>   CDf =  0.00596    CDp =  0.00137

 Side 1  free  transition at x/c =  0.5218   54
 Side 2  free  transition at x/c =  0.2695   29

   3   rms: 0.2191E-03   max: -.5207E-02   C at   29  2
       a =  0.500      CL =  0.4997
      Cm = -0.0938     CD =  0.00733   =>   CDf =  0.00596    CDp =  0.00137

 Side 1  free  transition at x/c =  0.5218   54
 Side 2  free  transition at x/c =  0.2696   29

   4   rms: 0.5845E-06   max: -.3463E-05   C at   30  2
       a =  0.500      CL =  0.4997
      Cm = -0.0938     CD =  0.00733   =>   CDf =  0.00596    CDp =  0.00137
      9.000    3.3526   0.007329   0.000000   0.000000   0.000000    0.5218     #

 Point added to stored polar  1
 Point written to save file  /home/nesd/tmp/dynamicas/python/users/a/ASTRO/r_
 Point written to dump file /home/nesd/tmp/dynamicas/python/users/a/ASTRO/r_
 Calculating wake trajectory ...
 Calculating source influence matrix ...

 Solving BL system ...

 Side 1  free  transition at x/c =  0.5218   54
 Side 2  free  transition at x/c =  0.2696   29

   1   rms: 0.2365E-01   max: -.4661E+00   C at   29  2
       a =  0.600      CL =  0.5094
      Cm = -0.0935     CD =  0.00735   =>   CDf =  0.00596    CDp =  0.00139

 Side 1  free  transition at x/c =  0.5180   53
 Side 2  free  transition at x/c =  0.2793   30

   2   rms: 0.2458E-02   max: 0.4017E-01   C at   53  1
       a =  0.600      CL =  0.5100
      Cm = -0.0936     CD =  0.00732   =>   CDf =  0.00594    CDp =  0.00138

 Side 1  free  transition at x/c =  0.5171   53
 Side 2  free  transition at x/c =  0.2793   30

   3   rms: 0.4989E-04   max: -.8091E-03   D at   55  1
       a =  0.600      CL =  0.5100
      Cm = -0.0936     CD =  0.00732   =>   CDf =  0.00594    CDp =  0.00138
      9.000    3.3440   0.007320   0.000000   0.000000   0.000000    0.5171     #

 Point added to stored polar  1
 Point written to save file  /home/nesd/tmp/dynamicas/python/users/a/ASTRO/r_
 Point written to dump file /home/nesd/tmp/dynamicas/python/users/a/ASTRO/r_
 Calculating wake trajectory ...
 Calculating source influence matrix ...

 Solving BL system ...

 Side 1  free  transition at x/c =  0.5171   53
 Side 2  free  transition at x/c =  0.2793   30

   1   rms: 0.2556E-01   max: -.5523E+00   C at   30  2   RLX: 0.905
       a =  0.700      CL =  0.5193
      Cm = -0.0935     CD =  0.00731   =>   CDf =  0.00594    CDp =  0.00137

 Side 1  free  transition at x/c =  0.5113   53
 Side 2  free  transition at x/c =  0.2887   31

   2   rms: 0.2480E-02   max: -.4328E-01   C at   31  2
       a =  0.700      CL =  0.5200
      Cm = -0.0935     CD =  0.00732   =>   CDf =  0.00593    CDp =  0.00139

 Side 1  free  transition at x/c =  0.5116   53
 Side 2  free  transition at x/c =  0.2898   31

   3   rms: 0.1272E-03   max: -.2991E-02   C at   31  2
       a =  0.700      CL =  0.5200
      Cm = -0.0935     CD =  0.00732   =>   CDf =  0.00593    CDp =  0.00140

 Side 1  free  transition at x/c =  0.5116   53
 Side 2  free  transition at x/c =  0.2898   31

   4   rms: 0.3780E-06   max: -.1352E-05   C at   31  2
       a =  0.700      CL =  0.5200
      Cm = -0.0935     CD =  0.00732   =>   CDf =  0.00593    CDp =  0.00140
      9.000    3.3224   0.007322   0.000000   0.000000   0.000000    0.5116     #

 Point added to stored polar  1
 Point written to save file  /home/nesd/tmp/dynamicas/python/users/a/ASTRO/r_
 Point written to dump file /home/nesd/tmp/dynamicas/python/users/a/ASTRO/r_
 Calculating wake trajectory ...
 Calculating source influence matrix ...

 Solving BL system ...

 Side 1  free  transition at x/c =  0.5116   53
 Side 2  free  transition at x/c =  0.2898   31

   1   rms: 0.2605E-01   max: -.5349E+00   C at   31  2   RLX: 0.935
       a =  0.800      CL =  0.5292
      Cm = -0.0933     CD =  0.00734   =>   CDf =  0.00593    CDp =  0.00141

 Side 1  free  transition at x/c =  0.5077   52
 Side 2  free  transition at x/c =  0.2990   32

   2   rms: 0.2056E-02   max: -.3678E-01   C at   32  2
       a =  0.800      CL =  0.5300
      Cm = -0.0933     CD =  0.00733   =>   CDf =  0.00592    CDp =  0.00141

 Side 1  free  transition at x/c =  0.5076   52
 Side 2  free  transition at x/c =  0.2999   32

   3   rms: 0.8568E-04   max: -.2022E-02   C at   32  2
       a =  0.800      CL =  0.5300
      Cm = -0.0933     CD =  0.00733   =>   CDf =  0.00592    CDp =  0.00141
      9.000    3.3317   0.007329   0.000000   0.000000   0.000000    0.5076     #

 Point added to stored polar  1
 Point written to save file  /home/nesd/tmp/dynamicas/python/users/a/ASTRO/r_
 Point written to dump file /home/nesd/tmp/dynamicas/python/users/a/ASTRO/r_
 Calculating wake trajectory ...
 Calculating source influence matrix ...

 Solving BL system ...

 Side 1  free  transition at x/c =  0.5076   52
 Side 2  free  transition at x/c =  0.2999   32

   1   rms: 0.2510E-01   max: -.5025E+00   C at   32  2   RLX: 0.995
       a =  0.900      CL =  0.5399
      Cm = -0.0931     CD =  0.00734   =>   CDf =  0.00592    CDp =  0.00142

 Side 1  free  transition at x/c =  0.5037   52
 Side 2  free  transition at x/c =  0.3109   33

   2   rms: 0.1167E-02   max: 0.1763E-01   D at   32  2
       a =  0.900      CL =  0.5398
      Cm = -0.0930     CD =  0.00734   =>   CDf =  0.00591    CDp =  0.00143

 Side 1  free  transition at x/c =  0.5039   52
 Side 2  free  transition at x/c =  0.3108   33

   3   rms: 0.2000E-04   max: -.4502E-03   C at   33  2
       a =  0.900      CL =  0.5398
      Cm = -0.0930     CD =  0.00734   =>   CDf =  0.00591    CDp =  0.00143
      9.000    3.3396   0.007340   0.000000   0.000000   0.000000    0.5039     #

 Point added to stored polar  1
 Point written to save file  /home/nesd/tmp/dynamicas/python/users/a/ASTRO/r_
 Point written to dump file /home/nesd/tmp/dynamicas/python/users/a/ASTRO/r_
 Calculating wake trajectory ...
 Calculating source influence matrix ...

 Solving BL system ...

 Side 1  free  transition at x/c =  0.5039   52
 Side 2  free  transition at x/c =  0.3108   33

   1   rms: 0.2384E-01   max: -.4753E+00   C at   33  2
       a =  1.000      CL =  0.5497
      Cm = -0.0928     CD =  0.00736   =>   CDf =  0.00591    CDp =  0.00145

 Side 1  free  transition at x/c =  0.5007   51
 Side 2  free  transition at x/c =  0.3285   35

   2   rms: 0.7278E-02   max: 0.1634E+00   C at   35  2
       a =  1.000      CL =  0.5495
      Cm = -0.0928     CD =  0.00733   =>   CDf =  0.00587    CDp =  0.00146

 Side 1  free  transition at x/c =  0.5006   51
 Side 2  free  transition at x/c =  0.3231   35

   3   rms: 0.1735E-02   max: -.3960E-01   C at   35  2
       a =  1.000      CL =  0.5495
      Cm = -0.0928     CD =  0.00734   =>   CDf =  0.00589    CDp =  0.00145

 Side 1  free  transition at x/c =  0.5006   51
 Side 2  free  transition at x/c =  0.3237   35

   4   rms: 0.8088E-05   max: -.1656E-03   C at   35  2
       a =  1.000      CL =  0.5495
      Cm = -0.0928     CD =  0.00734   =>   CDf =  0.00589    CDp =  0.00145
      9.000    3.3474   0.007338   0.000000   0.000000   0.000000    0.5006     #

 Point added to stored polar  1
 Point written to save file  /home/nesd/tmp/dynamicas/python/users/a/ASTRO/r_
 Point written to dump file /home/nesd/tmp/dynamicas/python/users/a/ASTRO/r_
 Calculating wake trajectory ...
 Calculating source influence matrix ...

 Solving BL system ...

 Side 1  free  transition at x/c =  0.5006   51
 Side 2  free  transition at x/c =  0.3237   35

   1   rms: 0.4390E-01   max: -.9863E+00   C at   35  2   RLX: 0.507
       a =  1.100      CL =  0.5547
      Cm = -0.0927     CD =  0.00731   =>   CDf =  0.00589    CDp =  0.00143

 Side 1  free  transition at x/c =  0.4987   51
 Side 2  free  transition at x/c =  0.3322   35

   2   rms: 0.2132E-01   max: -.4810E+00   C at   35  2
       a =  1.100      CL =  0.5598
      Cm = -0.0927     CD =  0.00731   =>   CDf =  0.00587    CDp =  0.00145

 Side 1  free  transition at x/c =  0.4966   51
 Side 2  free  transition at x/c =  0.3474   37

   3   rms: 0.1361E-01   max: 0.3127E+00   C at   37  2
       a =  1.100      CL =  0.5597
      Cm = -0.0927     CD =  0.00731   =>   CDf =  0.00582    CDp =  0.00148

 Side 1  free  transition at x/c =  0.4968   51
 Side 2  free  transition at x/c =  0.3429   37

   4   rms: 0.9118E-03   max: -.2002E-01   C at   37  2
       a =  1.100      CL =  0.5597
      Cm = -0.0927     CD =  0.00731   =>   CDf =  0.00584    CDp =  0.00147

 Side 1  free  transition at x/c =  0.4968   51
 Side 2  free  transition at x/c =  0.3432   37

   5   rms: 0.3504E-05   max: 0.4771E-04   C at   37  2
       a =  1.100      CL =  0.5597
      Cm = -0.0927     CD =  0.00731   =>   CDf =  0.00584    CDp =  0.00147
      9.000    3.3579   0.007310   0.000000   0.000000   0.000000    0.4968     #

 Point added to stored polar  1
 Point written to save file  /home/nesd/tmp/dynamicas/python/users/a/ASTRO/r_
 Point written to dump file /home/nesd/tmp/dynamicas/python/users/a/ASTRO/r_
 Calculating wake trajectory ...
 Calculating source influence matrix ...

 Solving BL system ...

 Side 1  free  transition at x/c =  0.4968   51
 Side 2  free  transition at x/c =  0.3432   37

   1   rms: 0.4555E-01   max: -.9972E+00   C at   37  2   RLX: 0.501
       a =  1.200      CL =  0.5646
      Cm = -0.0926     CD =  0.00729   =>   CDf =  0.00584    CDp =  0.00145

 Side 1  free  transition at x/c =  0.4944   51
 Side 2  free  transition at x/c =  0.3510   37

   2   rms: 0.3611E-01   max: -.8052E+00   C at   37  2   RLX: 0.621
       a =  1.200      CL =  0.5677
      Cm = -0.0925     CD =  0.00728   =>   CDf =  0.00582    CDp =  0.00147

 Side 1  free  transition at x/c =  0.4931   51
 Side 2  free  transition at x/c =  0.3563   38

   3   rms: 0.1700E-01   max: -.3914E+00   C at   38  2
       a =  1.200      CL =  0.5694
      Cm = -0.0925     CD =  0.00728   =>   CDf =  0.00581    CDp =  0.00147

 Side 1  free  transition at x/c =  0.4924   51
 Side 2  free  transition at x/c =  0.3626   39

   4   rms: 0.3020E-02   max: -.6899E-01   C at   39  2
       a =  1.200      CL =  0.5694
      Cm = -0.0925     CD =  0.00728   =>   CDf =  0.00580    CDp =  0.00149

 Side 1  free  transition at x/c =  0.4924   51
 Side 2  free  transition at x/c =  0.3636   39

   5   rms: 0.2448E-04   max: -.5131E-03   C at   39  2
       a =  1.200      CL =  0.5694
      Cm = -0.0925     CD =  0.00729   =>   CDf =  0.00579    CDp =  0.00149
      9.000    3.3624   0.007285   0.000000   0.000000   0.000000    0.4924     #

 Point added to stored polar  1
 Point written to save file  /home/nesd/tmp/dynamicas/python/users/a/ASTRO/r_
 Point written to dump file /home/nesd/tmp/dynamicas/python/users/a/ASTRO/r_
 Calculating wake trajectory ...
 Calculating source influence matrix ...

 Solving BL system ...

 Side 1  free  transition at x/c =  0.4924   51
 Side 2  free  transition at x/c =  0.3636   39

   1   rms: 0.4932E-01   max: -.1089E+01   C at   39  2   RLX: 0.459
       a =  1.300      CL =  0.5738
      Cm = -0.0923     CD =  0.00727   =>   CDf =  0.00579    CDp =  0.00148

 Side 1  free  transition at x/c =  0.4906   50
 Side 2  free  transition at x/c =  0.3710   39

   2   rms: 0.3405E-01   max: -.7530E+00   C at   39  2   RLX: 0.664
       a =  1.300      CL =  0.5774
      Cm = -0.0923     CD =  0.00727   =>   CDf =  0.00578    CDp =  0.00149

 Side 1  free  transition at x/c =  0.4891   50
 Side 2  free  transition at x/c =  0.3770   40

   3   rms: 0.1239E-01   max: -.2795E+00   C at   40  2
       a =  1.300      CL =  0.5792
      Cm = -0.0922     CD =  0.00726   =>   CDf =  0.00570    CDp =  0.00156

 Side 1  free  transition at x/c =  0.4884   51
 Side 2  free  transition at x/c =  0.3746   39

   4   rms: 0.6686E-02   max: -.1529E+00   C at   39  2
       a =  1.300      CL =  0.5793
      Cm = -0.0923     CD =  0.00728   =>   CDf =  0.00574    CDp =  0.00154

 Side 1  free  transition at x/c =  0.4830   51
 Side 2  free  transition at x/c =  0.3770   39

   5   rms: 0.7097E-02   max: -.1480E+00   C at   51  1
       a =  1.300      CL =  0.5790
      Cm = -0.0922     CD =  0.00729   =>   CDf =  0.00577    CDp =  0.00152

 Side 1  free  transition at x/c =  0.4856   51
 Side 2  free  transition at x/c =  0.3768   39

   6   rms: 0.1236E-03   max: -.2182E-02   D at   52  1
       a =  1.300      CL =  0.5790
      Cm = -0.0922     CD =  0.00729   =>   CDf =  0.00575    CDp =  0.00154

 Side 1  free  transition at x/c =  0.4856   51
 Side 2  free  transition at x/c =  0.3768   39

   7   rms: 0.1252E-05   max: 0.1338E-04   C at   39  2
       a =  1.300      CL =  0.5790
      Cm = -0.0922     CD =  0.00729   =>   CDf =  0.00575    CDp =  0.00154
      9.000    3.3462   0.007292   0.000000   0.000000   0.000000    0.4856     #

 Point added to stored polar  1
 Point written to save file  /home/nesd/tmp/dynamicas/python/users/a/ASTRO/r_
 Point written to dump file /home/nesd/tmp/dynamicas/python/users/a/ASTRO/r_
 Calculating wake trajectory ...
 Calculating source influence matrix ...

 Solving BL system ...

 Side 1  free  transition at x/c =  0.4856   51
 Side 2  free  transition at x/c =  0.3768   39

   1   rms: 0.6384E-01   max: -.1413E+01   C at   39  2   RLX: 0.354
       a =  1.400      CL =  0.5823
      Cm = -0.0921     CD =  0.00728   =>   CDf =  0.00575    CDp =  0.00153

 Side 1  free  transition at x/c =  0.4841   51
 Side 2  free  transition at x/c =  0.3856   40

   2   rms: 0.4613E-01   max: -.1029E+01   C at   40  2   RLX: 0.486
       a =  1.400      CL =  0.5853
      Cm = -0.0920     CD =  0.00727   =>   CDf =  0.00573    CDp =  0.00154

 Side 1  free  transition at x/c =  0.4826   51
 Side 2  free  transition at x/c =  0.3945   41

   3   rms: 0.2624E-01   max: -.5885E+00   C at   41  2   RLX: 0.850
       a =  1.400      CL =  0.5878
      Cm = -0.0919     CD =  0.00726   =>   CDf =  0.00571    CDp =  0.00154

 Side 1  free  transition at x/c =  0.4814   51
 Side 2  free  transition at x/c =  0.4036   42

   4   rms: 0.5609E-02   max: -.1262E+00   C at   42  2
       a =  1.400      CL =  0.5882
      Cm = -0.0919     CD =  0.00726   =>   CDf =  0.00570    CDp =  0.00156

 Side 1  free  transition at x/c =  0.4813   51
 Side 2  free  transition at x/c =  0.4061   42

   5   rms: 0.3366E-03   max: -.7595E-02   C at   42  2
       a =  1.400      CL =  0.5882
      Cm = -0.0919     CD =  0.00726   =>   CDf =  0.00569    CDp =  0.00156

 Side 1  free  transition at x/c =  0.4813   51
 Side 2  free  transition at x/c =  0.4062   42

   6   rms: 0.1556E-05   max: 0.3110E-04   C at   42  2
       a =  1.400      CL =  0.5882
      Cm = -0.0919     CD =  0.00726   =>   CDf =  0.00569    CDp =  0.00156
      9.000    3.3347   0.007255   0.000000   0.000000   0.000000    0.4813     #

 Point added to stored polar  1
 Point written to save file  /home/nesd/tmp/dynamicas/python/users/a/ASTRO/r_
 Point written to dump file /home/nesd/tmp/dynamicas/python/users/a/ASTRO/r_
 Calculating wake trajectory ...
 Calculating source influence matrix ...

 Solving BL system ...

 Side 1  free  transition at x/c =  0.4813   51
 Side 2  free  transition at x/c =  0.4062   42

   1   rms: 0.7915E-01   max: -.1748E+01   C at   42  2   RLX: 0.286
       a =  1.500      CL =  0.5909
      Cm = -0.0918     CD =  0.00724   =>   CDf =  0.00569    CDp =  0.00155

 Side 1  free  transition at x/c =  0.4803   50
 Side 2  free  transition at x/c =  0.4156   43

   2   rms: 0.6097E-01   max: -.1350E+01   C at   43  2   RLX: 0.370
       a =  1.500      CL =  0.5934
      Cm = -0.0917     CD =  0.00722   =>   CDf =  0.00567    CDp =  0.00155

 Side 1  free  transition at x/c =  0.4793   50
 Side 2  free  transition at x/c =  0.4252   44

   3   rms: 0.3998E-01   max: -.8820E+00   C at   44  2   RLX: 0.567
       a =  1.500      CL =  0.5958
      Cm = -0.0917     CD =  0.00721   =>   CDf =  0.00565    CDp =  0.00156

 Side 1  free  transition at x/c =  0.4784   50
 Side 2  free  transition at x/c =  0.4350   45

   4   rms: 0.1772E-01   max: -.3895E+00   C at   45  2
       a =  1.500      CL =  0.5976
      Cm = -0.0916     CD =  0.00719   =>   CDf =  0.00562    CDp =  0.00157

 Side 1  free  transition at x/c =  0.4777   50
 Side 2  free  transition at x/c =  0.4430   46

   5   rms: 0.2963E-03   max: 0.4014E-02   D at   45  2
       a =  1.500      CL =  0.5976
      Cm = -0.0916     CD =  0.00719   =>   CDf =  0.00561    CDp =  0.00159

 Side 1  free  transition at x/c =  0.4777   50
 Side 2  free  transition at x/c =  0.4432   46

   6   rms: 0.3440E-04   max: 0.7648E-03   C at   46  2
       a =  1.500      CL =  0.5976
      Cm = -0.0916     CD =  0.00719   =>   CDf =  0.00561    CDp =  0.00159
      9.000    3.3328   0.007192   0.000000   0.000000   0.000000    0.4777     #

 Point added to stored polar  1
 Point written to save file  /home/nesd/tmp/dynamicas/python/users/a/ASTRO/r_
 Point written to dump file /home/nesd/tmp/dynamicas/python/users/a/ASTRO/r_
 Calculating wake trajectory ...
 Calculating source influence matrix ...

 Solving BL system ...

 Side 1  free  transition at x/c =  0.4777   50
 Side 2  free  transition at x/c =  0.4432   46

   1   rms: 0.9251E-01   max: -.2045E+01   C at   46  2   RLX: 0.244
       a =  1.600      CL =  0.5998
      Cm = -0.0915     CD =  0.00717   =>   CDf =  0.00561    CDp =  0.00157

 Side 1  free  transition at x/c =  0.4768   50
 Side 2  free  transition at x/c =  0.4533   47

   2   rms: 0.8121E-01   max: -.1787E+01   C at   47  2   RLX: 0.280
       a =  1.600      CL =  0.6017
      Cm = -0.0914     CD =  0.00716   =>   CDf =  0.00558    CDp =  0.00157

 Side 1  free  transition at x/c =  0.4760   50
 Side 2  free  transition at x/c =  0.4620   48

   3   rms: 0.5201E-01   max: -.1147E+01   C at   48  2   RLX: 0.436
       a =  1.600      CL =  0.6039
      Cm = -0.0914     CD =  0.00714   =>   CDf =  0.00556    CDp =  0.00158

 Side 1  free  transition at x/c =  0.4752   50
 Side 2  free  transition at x/c =  0.4735   49

   4   rms: 0.2549E-01   max: -.5532E+00   C at   49  2   RLX: 0.904
       a =  1.600      CL =  0.6064
      Cm = -0.0913     CD =  0.00713   =>   CDf =  0.00554    CDp =  0.00159

 Side 1  free  transition at x/c =  0.4742   50
 Side 2  free  transition at x/c =  0.4875   50

   5   rms: 0.1217E-02   max: 0.1751E-01   C at   50  2
       a =  1.600      CL =  0.6065
      Cm = -0.0912     CD =  0.00712   =>   CDf =  0.00550    CDp =  0.00162

 Side 1  free  transition at x/c =  0.4741   50
 Side 2  free  transition at x/c =  0.4874   50

   6   rms: 0.1017E-03   max: -.2160E-02   C at   50  2
       a =  1.600      CL =  0.6065
      Cm = -0.0912     CD =  0.00712   =>   CDf =  0.00551    CDp =  0.00161

 Side 1  free  transition at x/c =  0.4741   50
 Side 2  free  transition at x/c =  0.4875   50

   7   rms: 0.9171E-05   max: -.1953E-03   C at   50  2
       a =  1.600      CL =  0.6065
      Cm = -0.0912     CD =  0.00712   =>   CDf =  0.00551    CDp =  0.00161
      9.000    3.3413   0.007119   0.000000   0.000000   0.000000    0.4741     #

 Point added to stored polar  1
 Point written to save file  /home/nesd/tmp/dynamicas/python/users/a/ASTRO/r_
 Point written to dump file /home/nesd/tmp/dynamicas/python/users/a/ASTRO/r_
 Calculating wake trajectory ...
 Calculating source influence matrix ...

 Solving BL system ...

 Side 1  free  transition at x/c =  0.4741   50
 Side 2  free  transition at x/c =  0.4875   50

   1   rms: 0.9609E-01   max: -.2030E+01   C at   50  2   RLX: 0.246
       a =  1.700      CL =  0.6088
      Cm = -0.0912     CD =  0.00711   =>   CDf =  0.00551    CDp =  0.00160

 Side 1  free  transition at x/c =  0.4733   50
 Side 2  free  transition at x/c =  0.5024   52

   2   rms: 0.4179E-01   max: -.8975E+00   C at   52  2   RLX: 0.557
       a =  1.700      CL =  0.6126
      Cm = -0.0910     CD =  0.00709   =>   CDf =  0.00547    CDp =  0.00162

 Side 1  free  transition at x/c =  0.4718   50
 Side 2  free  transition at x/c =  0.5205   54

   3   rms: 0.1995E-01   max: -.4257E+00   C at   54  2
       a =  1.700      CL =  0.6154
      Cm = -0.0908     CD =  0.00706   =>   CDf =  0.00544    CDp =  0.00163

 Side 1  free  transition at x/c =  0.4708   50
 Side 2  free  transition at x/c =  0.5266   54

   4   rms: 0.4096E-02   max: -.8784E-01   C at   54  2
       a =  1.700      CL =  0.6154
      Cm = -0.0909     CD =  0.00707   =>   CDf =  0.00543    CDp =  0.00164

 Side 1  free  transition at x/c =  0.4708   50
 Side 2  free  transition at x/c =  0.5283   54

   5   rms: 0.6725E-04   max: -.1431E-02   C at   54  2
       a =  1.700      CL =  0.6154
      Cm = -0.0909     CD =  0.00707   =>   CDf =  0.00542    CDp =  0.00164
      9.000    3.3477   0.007068   0.000000   0.000000   0.000000    0.4708     #

 Point added to stored polar  1
 Point written to save file  /home/nesd/tmp/dynamicas/python/users/a/ASTRO/r_
 Point written to dump file /home/nesd/tmp/dynamicas/python/users/a/ASTRO/r_
 Calculating wake trajectory ...
 Calculating source influence matrix ...

 Solving BL system ...

 Side 1  free  transition at x/c =  0.4708   50
 Side 2  free  transition at x/c =  0.5284   54

   1   rms: 0.8249E-01   max: -.1724E+01   C at   54  2   RLX: 0.290
       a =  1.800      CL =  0.6180
      Cm = -0.0907     CD =  0.00706   =>   CDf =  0.00542    CDp =  0.00163

 Side 1  free  transition at x/c =  0.4700   49
 Side 2  free  transition at x/c =  0.5405   56

   2   rms: 0.6308E-01   max: -.1372E+01   C at   56  2   RLX: 0.365
       a =  1.800      CL =  0.6204
      Cm = -0.0907     CD =  0.00702   =>   CDf =  0.00539    CDp =  0.00163

 Side 1  free  transition at x/c =  0.4691   49
 Side 2  free  transition at x/c =  0.5501   57

   3   rms: 0.4164E-01   max: -.9054E+00   C at   57  2   RLX: 0.552
       a =  1.800      CL =  0.6227
      Cm = -0.0906     CD =  0.00700   =>   CDf =  0.00537    CDp =  0.00164

 Side 1  free  transition at x/c =  0.4683   49
 Side 2  free  transition at x/c =  0.5599   58

   4   rms: 0.2148E-01   max: -.4679E+00   C at   58  2
       a =  1.800      CL =  0.6245
      Cm = -0.0905     CD =  0.00699   =>   CDf =  0.00534    CDp =  0.00165

 Side 1  free  transition at x/c =  0.4676   49
 Side 2  free  transition at x/c =  0.5691   59

   5   rms: 0.2578E-02   max: -.5668E-01   C at   59  2
       a =  1.800      CL =  0.6245
      Cm = -0.0905     CD =  0.00699   =>   CDf =  0.00532    CDp =  0.00167

 Side 1  free  transition at x/c =  0.4676   49
 Side 2  free  transition at x/c =  0.5703   59

   6   rms: 0.7258E-04   max: -.1581E-02   C at   59  2
       a =  1.800      CL =  0.6245
      Cm = -0.0905     CD =  0.00699   =>   CDf =  0.00532    CDp =  0.00167
      9.000    3.3563   0.006990   0.000000   0.000000   0.000000    0.4676     #

 Point added to stored polar  1
 Point written to save file  /home/nesd/tmp/dynamicas/python/users/a/ASTRO/r_
 Point written to dump file /home/nesd/tmp/dynamicas/python/users/a/ASTRO/r_
 Calculating wake trajectory ...
 Calculating source influence matrix ...

 Solving BL system ...

 Side 1  free  transition at x/c =  0.4676   49
 Side 2  free  transition at x/c =  0.5703   59

   1   rms: 0.9000E-01   max: -.1945E+01   C at   59  2   RLX: 0.257
       a =  1.900      CL =  0.6268
      Cm = -0.0904     CD =  0.00697   =>   CDf =  0.00532    CDp =  0.00165

 Side 1  free  transition at x/c =  0.4667   49
 Side 2  free  transition at x/c =  0.5806   60

   2   rms: 0.6690E-01   max: -.1441E+01   C at   60  2   RLX: 0.347
       a =  1.900      CL =  0.6291
      Cm = -0.0903     CD =  0.00695   =>   CDf =  0.00529    CDp =  0.00166

 Side 1  free  transition at x/c =  0.4658   49
 Side 2  free  transition at x/c =  0.5915   61

   3   rms: 0.4337E-01   max: -.9261E+00   C at   61  2   RLX: 0.540
       a =  1.900      CL =  0.6314
      Cm = -0.0902     CD =  0.00694   =>   CDf =  0.00526    CDp =  0.00167

 Side 1  free  transition at x/c =  0.4650   49
 Side 2  free  transition at x/c =  0.6028   62

   4   rms: 0.1878E-01   max: -.3979E+00   C at   62  2
       a =  1.900      CL =  0.6334
      Cm = -0.0901     CD =  0.00692   =>   CDf =  0.00524    CDp =  0.00169

 Side 1  free  transition at x/c =  0.4642   49
 Side 2  free  transition at x/c =  0.6124   63

   5   rms: 0.5133E-03   max: 0.1047E-01   D at   62  2
       a =  1.900      CL =  0.6333
      Cm = -0.0901     CD =  0.00692   =>   CDf =  0.00522    CDp =  0.00171

 Side 1  free  transition at x/c =  0.4642   49
 Side 2  free  transition at x/c =  0.6126   63

   6   rms: 0.3578E-04   max: -.7557E-03   C at   63  2
       a =  1.900      CL =  0.6333
      Cm = -0.0901     CD =  0.00692   =>   CDf =  0.00522    CDp =  0.00171
      9.000    3.3618   0.006923   0.000000   0.000000   0.000000    0.4642     #

 Point added to stored polar  1
 Point written to save file  /home/nesd/tmp/dynamicas/python/users/a/ASTRO/r_
 Point written to dump file /home/nesd/tmp/dynamicas/python/users/a/ASTRO/r_
 Calculating wake trajectory ...
 Calculating source influence matrix ...

 Solving BL system ...

 Side 1  free  transition at x/c =  0.4642   49
 Side 2  free  transition at x/c =  0.6126   63

   1   rms: 0.7886E-01   max: -.1668E+01   C at   63  2   RLX: 0.300
       a =  2.000      CL =  0.6360
      Cm = -0.0900     CD =  0.00691   =>   CDf =  0.00522    CDp =  0.00169

 Side 1  free  transition at x/c =  0.4632   49
 Side 2  free  transition at x/c =  0.6240   64

   2   rms: 0.5008E-01   max: -.1049E+01   C at   64  2   RLX: 0.476
       a =  2.000      CL =  0.6389
      Cm = -0.0898     CD =  0.00689   =>   CDf =  0.00519    CDp =  0.00170

 Side 1  free  transition at x/c =  0.4621   49
 Side 2  free  transition at x/c =  0.6366   65

   3   rms: 0.1717E-01   max: -.3519E+00   C at   65  2
       a =  2.000      CL =  0.6423
      Cm = -0.0897     CD =  0.00689   =>   CDf =  0.00517    CDp =  0.00173

 Side 1  free  transition at x/c =  0.4610   49
 Side 2  free  transition at x/c =  0.6534   67

   4   rms: 0.6119E-02   max: 0.1259E+00   C at   67  2
       a =  2.000      CL =  0.6419
      Cm = -0.0896     CD =  0.00687   =>   CDf =  0.00513    CDp =  0.00175

 Side 1  free  transition at x/c =  0.4610   49
 Side 2  free  transition at x/c =  0.6483   67

   5   rms: 0.7655E-03   max: -.1645E-01   C at   67  2
       a =  2.000      CL =  0.6419
      Cm = -0.0896     CD =  0.00688   =>   CDf =  0.00514    CDp =  0.00174

 Side 1  free  transition at x/c =  0.4610   49
 Side 2  free  transition at x/c =  0.6487   67

   6   rms: 0.3968E-05   max: -.8493E-04   C at   67  2
       a =  2.000      CL =  0.6419
      Cm = -0.0896     CD =  0.00688   =>   CDf =  0.00514    CDp =  0.00174
      9.000    3.3636   0.006876   0.000000   0.000000   0.000000    0.4610     #

 Point added to stored polar  1
 Point written to save file  /home/nesd/tmp/dynamicas/python/users/a/ASTRO/r_
 Point written to dump file /home/nesd/tmp/dynamicas/python/users/a/ASTRO/r_
 Calculating wake trajectory ...
 Calculating source influence matrix ...

 Solving BL system ...

 Side 1  free  transition at x/c =  0.4610   49
 Side 2  free  transition at x/c =  0.6487   67

   1   rms: 0.6806E-01   max: -.1443E+01   C at   67  2   RLX: 0.346
       a =  2.100      CL =  0.6449
      Cm = -0.0895     CD =  0.00686   =>   CDf =  0.00514    CDp =  0.00173

 Side 1  free  transition at x/c =  0.4601   48
 Side 2  free  transition at x/c =  0.6603   68

   2   rms: 0.5978E-01   max: -.1273E+01   C at   68  2   RLX: 0.393
       a =  2.100      CL =  0.6473
      Cm = -0.0894     CD =  0.00684   =>   CDf =  0.00511    CDp =  0.00172

 Side 1  free  transition at x/c =  0.4592   48
 Side 2  free  transition at x/c =  0.6688   69

   3   rms: 0.3462E-01   max: -.7409E+00   C at   69  2   RLX: 0.675
       a =  2.100      CL =  0.6497
      Cm = -0.0893     CD =  0.00682   =>   CDf =  0.00509    CDp =  0.00173

 Side 1  free  transition at x/c =  0.4582   48
 Side 2  free  transition at x/c =  0.6798   70

   4   rms: 0.1632E-01   max: -.3493E+00   C at   70  2
       a =  2.100      CL =  0.6507
      Cm = -0.0892     CD =  0.00681   =>   CDf =  0.00506    CDp =  0.00175

 Side 1  free  transition at x/c =  0.4577   48
 Side 2  free  transition at x/c =  0.6867   70

   5   rms: 0.1577E-02   max: -.3244E-01   C at   70  2
       a =  2.100      CL =  0.6508
      Cm = -0.0892     CD =  0.00681   =>   CDf =  0.00504    CDp =  0.00177

 Side 1  free  transition at x/c =  0.4577   48
 Side 2  free  transition at x/c =  0.6873   70

   6   rms: 0.1390E-04   max: -.2808E-03   C at   70  2
       a =  2.100      CL =  0.6508
      Cm = -0.0892     CD =  0.00681   =>   CDf =  0.00504    CDp =  0.00177
      9.000    3.3668   0.006808   0.000000   0.000000   0.000000    0.4577     #

 Point added to stored polar  1
 Point written to save file  /home/nesd/tmp/dynamicas/python/users/a/ASTRO/r_
 Point written to dump file /home/nesd/tmp/dynamicas/python/users/a/ASTRO/r_
 Calculating wake trajectory ...
 Calculating source influence matrix ...

 Solving BL system ...

 Side 1  free  transition at x/c =  0.4577   48
 Side 2  free  transition at x/c =  0.6873   70

   1   rms: 0.8903E-01   max: -.1796E+01   C at   70  2   RLX: 0.278
       a =  2.200      CL =  0.6532
      Cm = -0.0891     CD =  0.00679   =>   CDf =  0.00504    CDp =  0.00175

 Side 1  free  transition at x/c =  0.4566   48
 Side 2  free  transition at x/c =  0.6979   72

   2   rms: 0.5537E-01   max: -.1175E+01   C at   72  2   RLX: 0.426
       a =  2.200      CL =  0.6557
      Cm = -0.0889     CD =  0.00676   =>   CDf =  0.00501    CDp =  0.00176

 Side 1  free  transition at x/c =  0.4554   48
 Side 2  free  transition at x/c =  0.7092   73

   3   rms: 0.3658E-01   max: -.7780E+00   C at   73  2   RLX: 0.643
       a =  2.200      CL =  0.6579
      Cm = -0.0888     CD =  0.00675   =>   CDf =  0.00499    CDp =  0.00176

 Side 1  free  transition at x/c =  0.4544   48
 Side 2  free  transition at x/c =  0.7190   74

   4   rms: 0.1657E-01   max: -.3519E+00   C at   74  2
       a =  2.200      CL =  0.6591
      Cm = -0.0886     CD =  0.00674   =>   CDf =  0.00496    CDp =  0.00178

 Side 1  free  transition at x/c =  0.4538   48
 Side 2  free  transition at x/c =  0.7268   74

   5   rms: 0.1799E-02   max: -.3667E-01   C at   74  2
       a =  2.200      CL =  0.6591
      Cm = -0.0886     CD =  0.00674   =>   CDf =  0.00494    CDp =  0.00180

 Side 1  free  transition at x/c =  0.4538   48
 Side 2  free  transition at x/c =  0.7277   74

   6   rms: 0.2921E-04   max: -.5837E-03   C at   74  2
       a =  2.200      CL =  0.6591
      Cm = -0.0886     CD =  0.00674   =>   CDf =  0.00494    CDp =  0.00180
      9.000    3.3641   0.006739   0.000000   0.000000   0.000000    0.4538     #

 Point added to stored polar  1
 Point written to save file  /home/nesd/tmp/dynamicas/python/users/a/ASTRO/r_
 Point written to dump file /home/nesd/tmp/dynamicas/python/users/a/ASTRO/r_
 Calculating wake trajectory ...
 Calculating source influence matrix ...

 Solving BL system ...

 Side 1  free  transition at x/c =  0.4538   48
 Side 2  free  transition at x/c =  0.7275   74

   1   rms: 0.7292E-01   max: -.1461E+01   C at   74  2   RLX: 0.342
       a =  2.300      CL =  0.6620
      Cm = -0.0885     CD =  0.00673   =>   CDf =  0.00494    CDp =  0.00179

 Side 1  free  transition at x/c =  0.4525   48
 Side 2  free  transition at x/c =  0.7425   76

   2   rms: 0.4952E-01   max: -.1016E+01   C at   76  2   RLX: 0.492
       a =  2.300      CL =  0.6644
      Cm = -0.0882     CD =  0.00670   =>   CDf =  0.00490    CDp =  0.00180

 Side 1  free  transition at x/c =  0.4513   48
 Side 2  free  transition at x/c =  0.7547   77

   3   rms: 0.1919E-01   max: -.3891E+00   C at   77  2
       a =  2.300      CL =  0.6671
      Cm = -0.0880     CD =  0.00669   =>   CDf =  0.00487    CDp =  0.00182

 Side 1  free  transition at x/c =  0.4502   47
 Side 2  free  transition at x/c =  0.7696   79

   4   rms: 0.4614E-02   max: 0.9302E-01   C at   79  2
       a =  2.300      CL =  0.6668
      Cm = -0.0879     CD =  0.00667   =>   CDf =  0.00483    CDp =  0.00185

 Side 1  free  transition at x/c =  0.4503   47
 Side 2  free  transition at x/c =  0.7664   78

   5   rms: 0.6428E-03   max: -.1269E-01   C at   78  2
       a =  2.300      CL =  0.6668
      Cm = -0.0880     CD =  0.00667   =>   CDf =  0.00484    CDp =  0.00184

 Side 1  free  transition at x/c =  0.4503   47
 Side 2  free  transition at x/c =  0.7667   78

   6   rms: 0.2819E-04   max: 0.5519E-03   C at   78  2
       a =  2.300      CL =  0.6668
      Cm = -0.0880     CD =  0.00667   =>   CDf =  0.00484    CDp =  0.00184
      9.000    3.3552   0.006675   0.000000   0.000000   0.000000    0.4503     #

 Point added to stored polar  1
 Point written to save file  /home/nesd/tmp/dynamicas/python/users/a/ASTRO/r_
 Point written to dump file /home/nesd/tmp/dynamicas/python/users/a/ASTRO/r_
 Calculating wake trajectory ...
 Calculating source influence matrix ...

 Solving BL system ...

 Side 1  free  transition at x/c =  0.4503   47
 Side 2  free  transition at x/c =  0.7666   78

   1   rms: 0.1339E+00   max: -.2639E+01   C at   78  2   RLX: 0.189
       a =  2.400      CL =  0.6681
      Cm = -0.0878     CD =  0.00665   =>   CDf =  0.00484    CDp =  0.00181

 Side 1  free  transition at x/c =  0.4496   47
 Side 2  free  transition at x/c =  0.7719   79

   2   rms: 0.6823E-01   max: -.1407E+01   C at   79  2   RLX: 0.355
       a =  2.400      CL =  0.6706
      Cm = -0.0877     CD =  0.00664   =>   CDf =  0.00482    CDp =  0.00182

 Side 1  free  transition at x/c =  0.4486   47
 Side 2  free  transition at x/c =  0.7845   80

   3   rms: 0.3479E-01   max: -.7084E+00   C at   80  2   RLX: 0.706
       a =  2.400      CL =  0.6738
      Cm = -0.0875     CD =  0.00663   =>   CDf =  0.00479    CDp =  0.00183

 Side 1  free  transition at x/c =  0.4471   47
 Side 2  free  transition at x/c =  0.8063   82

   4   rms: 0.8206E-02   max: -.1535E+00   C at   82  2
       a =  2.400      CL =  0.6743
      Cm = -0.0872     CD =  0.00659   =>   CDf =  0.00472    CDp =  0.00186

 Side 1  free  transition at x/c =  0.4467   47
 Side 2  free  transition at x/c =  0.8080   83

   5   rms: 0.3984E-02   max: -.8344E-01   C at   83  2
       a =  2.400      CL =  0.6743
      Cm = -0.0872     CD =  0.00659   =>   CDf =  0.00472    CDp =  0.00187

 Side 1  free  transition at x/c =  0.4467   47
 Side 2  free  transition at x/c =  0.8097   83

   6   rms: 0.3576E-03   max: -.7428E-02   C at   83  2
       a =  2.400      CL =  0.6743
      Cm = -0.0872     CD =  0.00659   =>   CDf =  0.00472    CDp =  0.00187

 Side 1  free  transition at x/c =  0.4467   47
 Side 2  free  transition at x/c =  0.8099   83

   7   rms: 0.5494E-05   max: -.1136E-03   C at   83  2
       a =  2.400      CL =  0.6743
      Cm = -0.0872     CD =  0.00659   =>   CDf =  0.00472    CDp =  0.00187
      9.000    3.3496   0.006590   0.000000   0.000000   0.000000    0.4467     #

 Point added to stored polar  1
 Point written to save file  /home/nesd/tmp/dynamicas/python/users/a/ASTRO/r_
 Point written to dump file /home/nesd/tmp/dynamicas/python/users/a/ASTRO/r_
 Calculating wake trajectory ...
 Calculating source influence matrix ...

 Solving BL system ...

 Side 1  free  transition at x/c =  0.4467   47
 Side 2  free  transition at x/c =  0.8099   83

   1   rms: 0.7736E-01   max: -.1598E+01   C at   83  2   RLX: 0.313
       a =  2.500      CL =  0.6766
      Cm = -0.0869     CD =  0.00657   =>   CDf =  0.00472    CDp =  0.00185

 Side 1  free  transition at x/c =  0.4454   47
 Side 2  free  transition at x/c =  0.8225   84

   2   rms: 0.5968E-01   max: -.1211E+01   C at   84  2   RLX: 0.413
       a =  2.500      CL =  0.6787
      Cm = -0.0867     CD =  0.00655   =>   CDf =  0.00469    CDp =  0.00186

 Side 1  free  transition at x/c =  0.4443   47
 Side 2  free  transition at x/c =  0.8354   85

   3   rms: 0.3661E-01   max: -.7260E+00   C at   85  2   RLX: 0.689
       a =  2.500      CL =  0.6806
      Cm = -0.0864     CD =  0.00653   =>   CDf =  0.00465    CDp =  0.00187

 Side 1  free  transition at x/c =  0.4432   47
 Side 2  free  transition at x/c =  0.8500   87

   4   rms: 0.8434E-02   max: -.1720E+00   C at   87  2
       a =  2.500      CL =  0.6813
[...]
 Calculating wake trajectory ...
 Calculating source influence matrix ...

 Solving BL system ...

 Side 1  free  transition at x/c =  0.0193    5
 Side 2 forced transition at x/c =  1.0000  101

   1   rms: 0.9208E-02   max: 0.2026E-01   D at  107  2
       a =  8.700      CL =  1.1905
      Cm = -0.0587     CD =  0.01550   =>   CDf =  0.00658    CDp =  0.00892

 Side 1  free  transition at x/c =  0.0193    5
 Side 2 forced transition at x/c =  1.0000  101

   2   rms: 0.2232E-03   max: 0.2670E-02   D at   97  1
       a =  8.700      CL =  1.1903
      Cm = -0.0587     CD =  0.01549   =>   CDf =  0.00656    CDp =  0.00893

 Side 1  free  transition at x/c =  0.0193    5
 Side 2 forced transition at x/c =  1.0000  101

   3   rms: 0.3419E-05   max: -.6237E-04   C at  101  2
       a =  8.700      CL =  1.1903
      Cm = -0.0587     CD =  0.01549   =>   CDf =  0.00656    CDp =  0.00893
      9.000   14.5907   0.015493   0.014559   0.001014  -0.013545    0.0193     #

 Point added to stored polar  1
 Point written to save file  /home/nesd/tmp/dynamicas/python/users/a/ASTRO/r_
 Point written to dump file /home/nesd/tmp/dynamicas/python/users/a/ASTRO/r_
 Calculating wake trajectory ...
 Calculating source influence matrix ...

 Solving BL system ...

 Side 1  free  transition at x/c =  0.0193    5
 Side 2 forced transition at x/c =  1.0000  101

   1   rms: 0.9272E-02   max: 0.2070E-01   D at  107  2
       a =  8.800      CL =  1.1969
      Cm = -0.0580     CD =  0.01568   =>   CDf =  0.00656    CDp =  0.00912

 Side 1  free  transition at x/c =  0.0193    5
 Side 2 forced transition at x/c =  1.0000  101

   2   rms: 0.2021E-03   max: 0.1936E-02   D at   97  1
       a =  8.800      CL =  1.1967
      Cm = -0.0580     CD =  0.01567   =>   CDf =  0.00655    CDp =  0.00912

 Side 1  free  transition at x/c =  0.0193    5
 Side 2 forced transition at x/c =  1.0000  101

   3   rms: 0.2891E-05   max: -.5910E-04   C at  101  2
       a =  8.800      CL =  1.1967
      Cm = -0.0580     CD =  0.01567   =>   CDf =  0.00655    CDp =  0.00912
      9.000   14.8232   0.015673   0.014634   0.001041  -0.013592    0.0193     #

 Point added to stored polar  1
 Point written to save file  /home/nesd/tmp/dynamicas/python/users/a/ASTRO/r_
 Point written to dump file /home/nesd/tmp/dynamicas/python/users/a/ASTRO/r_
 Calculating wake trajectory ...
 Calculating source influence matrix ...

 Solving BL system ...

 Side 1  free  transition at x/c =  0.0193    5
 Side 2 forced transition at x/c =  1.0000  101

   1   rms: 0.9331E-02   max: 0.2104E-01   D at  108  2
       a =  8.900      CL =  1.2033
      Cm = -0.0574     CD =  0.01587   =>   CDf =  0.00655    CDp =  0.00932

 Side 1  free  transition at x/c =  0.0194    5
 Side 2 forced transition at x/c =  1.0000  101

   2   rms: 0.1843E-03   max: 0.1306E-02   D at   97  1
       a =  8.900      CL =  1.2031
      Cm = -0.0573     CD =  0.01586   =>   CDf =  0.00654    CDp =  0.00932

 Side 1  free  transition at x/c =  0.0194    5
 Side 2 forced transition at x/c =  1.0000  101

   3   rms: 0.2561E-05   max: -.5024E-04   C at  101  2
       a =  8.900      CL =  1.2031
      Cm = -0.0573     CD =  0.01586   =>   CDf =  0.00654    CDp =  0.00932
      9.000   15.0526   0.015857   0.014709   0.001069  -0.013639    0.0194     #

 Point added to stored polar  1
 Point written to save file  /home/nesd/tmp/dynamicas/python/users/a/ASTRO/r_
 Point written to dump file /home/nesd/tmp/dynamicas/python/users/a/ASTRO/r_
 Calculating wake trajectory ...
 Calculating source influence matrix ...

 Solving BL system ...

 Side 1  free  transition at x/c =  0.0194    5
 Side 2 forced transition at x/c =  1.0000  101

   1   rms: 0.9386E-02   max: 0.2133E-01   D at  108  2
       a =  9.000      CL =  1.2096
      Cm = -0.0567     CD =  0.01606   =>   CDf =  0.00654    CDp =  0.00952

 Side 1  free  transition at x/c =  0.0194    5
 Side 2 forced transition at x/c =  1.0000  101

   2   rms: 0.2629E-03   max: 0.3109E-02   D at   96  1
       a =  9.000      CL =  1.2094
      Cm = -0.0566     CD =  0.01605   =>   CDf =  0.00652    CDp =  0.00953

 Side 1  free  transition at x/c =  0.0194    5
 Side 2 forced transition at x/c =  1.0000  101

   3   rms: 0.5578E-05   max: -.9707E-04   C at  101  2
       a =  9.000      CL =  1.2094
      Cm = -0.0566     CD =  0.01605   =>   CDf =  0.00652    CDp =  0.00953
      9.000   15.2789   0.016048   0.014782   0.001098  -0.013685    0.0194     #

 Point added to stored polar  1
 Point written to save file  /home/nesd/tmp/dynamicas/python/users/a/ASTRO/r_
 Point written to dump file /home/nesd/tmp/dynamicas/python/users/a/ASTRO/r_
 Calculating wake trajectory ...
 Calculating source influence matrix ...

 Solving BL system ...

 Side 1  free  transition at x/c =  0.0194    5
 Side 2 forced transition at x/c =  1.0000  101

   1   rms: 0.9466E-02   max: 0.2185E-01   D at  108  2
       a =  9.100      CL =  1.2158
      Cm = -0.0560     CD =  0.01626   =>   CDf =  0.00652    CDp =  0.00973

 Side 1  free  transition at x/c =  0.0194    5
 Side 2 forced transition at x/c =  1.0000  101

   2   rms: 0.2562E-03   max: 0.2477E-02   D at  105  2
       a =  9.100      CL =  1.2156
      Cm = -0.0559     CD =  0.01625   =>   CDf =  0.00651    CDp =  0.00974

 Side 1  free  transition at x/c =  0.0194    5
 Side 2 forced transition at x/c =  1.0000  101

   3   rms: 0.4456E-05   max: -.9154E-04   C at  101  2
       a =  9.100      CL =  1.2155
      Cm = -0.0559     CD =  0.01624   =>   CDf =  0.00651    CDp =  0.00974
      9.000   15.5022   0.016245   0.014854   0.001126  -0.013728    0.0194     #

 Point added to stored polar  1
 Point written to save file  /home/nesd/tmp/dynamicas/python/users/a/ASTRO/r_
 Point written to dump file /home/nesd/tmp/dynamicas/python/users/a/ASTRO/r_
 Calculating wake trajectory ...
 Calculating source influence matrix ...

 Solving BL system ...

 Side 1  free  transition at x/c =  0.0194    5
 Side 2 forced transition at x/c =  1.0000  101

   1   rms: 0.9533E-02   max: 0.2217E-01   D at  108  2
       a =  9.200      CL =  1.2219
      Cm = -0.0553     CD =  0.01646   =>   CDf =  0.00651    CDp =  0.00995

 Side 1  free  transition at x/c =  0.0195    5
 Side 2 forced transition at x/c =  1.0000  101

   2   rms: 0.2290E-03   max: -.1797E-02   C at  101  2
       a =  9.200      CL =  1.2217
      Cm = -0.0552     CD =  0.01645   =>   CDf =  0.00649    CDp =  0.00996

 Side 1  free  transition at x/c =  0.0195    5
 Side 2 forced transition at x/c =  1.0000  101

   3   rms: 0.3907E-05   max: -.8347E-04   C at  101  2
       a =  9.200      CL =  1.2217
      Cm = -0.0552     CD =  0.01645   =>   CDf =  0.00649    CDp =  0.00996
      9.000   15.7237   0.016447   0.014929   0.001155  -0.013773    0.0195     #

 Point added to stored polar  1
 Point written to save file  /home/nesd/tmp/dynamicas/python/users/a/ASTRO/r_
 Point written to dump file /home/nesd/tmp/dynamicas/python/users/a/ASTRO/r_
 Calculating wake trajectory ...
 Calculating source influence matrix ...

 Solving BL system ...

 Side 1  free  transition at x/c =  0.0195    5
 Side 2 forced transition at x/c =  1.0000  101

   1   rms: 0.9594E-02   max: 0.2240E-01   D at  108  2
       a =  9.300      CL =  1.2279
      Cm = -0.0546     CD =  0.01667   =>   CDf =  0.00649    CDp =  0.01018

 Side 1  free  transition at x/c =  0.0195    5
 Side 2 forced transition at x/c =  1.0000  101

   2   rms: 0.2437E-03   max: 0.1958E-02   D at   95  1
       a =  9.300      CL =  1.2277
      Cm = -0.0545     CD =  0.01666   =>   CDf =  0.00648    CDp =  0.01018

 Side 1  free  transition at x/c =  0.0195    5
 Side 2 forced transition at x/c =  1.0000  101

   3   rms: 0.4673E-05   max: -.9093E-04   C at  101  2
       a =  9.300      CL =  1.2277
      Cm = -0.0545     CD =  0.01666   =>   CDf =  0.00648    CDp =  0.01018
      9.000   15.9436   0.016655   0.015008   0.001184  -0.013824    0.0195     #

 Point added to stored polar  1
 Point written to save file  /home/nesd/tmp/dynamicas/python/users/a/ASTRO/r_
 Point written to dump file /home/nesd/tmp/dynamicas/python/users/a/ASTRO/r_
 Calculating wake trajectory ...
 Calculating source influence matrix ...

 Solving BL system ...

 Side 1  free  transition at x/c =  0.0195    5
 Side 2 forced transition at x/c =  1.0000  101

   1   rms: 0.9674E-02   max: 0.2276E-01   D at  108  2
       a =  9.400      CL =  1.2339
      Cm = -0.0539     CD =  0.01688   =>   CDf =  0.00648    CDp =  0.01041

 Side 1  free  transition at x/c =  0.0195    5
 Side 2 forced transition at x/c =  1.0000  101

   2   rms: 0.3089E-03   max: 0.3208E-02   D at   95  1
       a =  9.400      CL =  1.2337
      Cm = -0.0538     CD =  0.01687   =>   CDf =  0.00646    CDp =  0.01041

 Side 1  free  transition at x/c =  0.0195    5
 Side 2 forced transition at x/c =  1.0000  101

   3   rms: 0.6108E-05   max: -.1200E-03   C at  101  2
       a =  9.400      CL =  1.2337
      Cm = -0.0538     CD =  0.01687   =>   CDf =  0.00646    CDp =  0.01041
      9.000   16.1616   0.016871   0.015085   0.001214  -0.013871    0.0195     #

 Point added to stored polar  1
 Point written to save file  /home/nesd/tmp/dynamicas/python/users/a/ASTRO/r_
 Point written to dump file /home/nesd/tmp/dynamicas/python/users/a/ASTRO/r_
 Calculating wake trajectory ...
 Calculating source influence matrix ...

 Solving BL system ...

 Side 1  free  transition at x/c =  0.0195    5
 Side 2 forced transition at x/c =  1.0000  101

   1   rms: 0.9819E-02   max: 0.2325E-01   D at  108  2
       a =  9.500      CL =  1.2398
      Cm = -0.0532     CD =  0.01711   =>   CDf =  0.00646    CDp =  0.01065

 Side 1  free  transition at x/c =  0.0196    5
 Side 2 forced transition at x/c =  1.0000  101

   2   rms: 0.3228E-03   max: 0.2717E-02   D at    3  2
       a =  9.500      CL =  1.2395
      Cm = -0.0531     CD =  0.01709   =>   CDf =  0.00644    CDp =  0.01065

 Side 1  free  transition at x/c =  0.0196    5
 Side 2 forced transition at x/c =  1.0000  101

   3   rms: 0.5094E-05   max: -.1036E-03   C at  101  2
       a =  9.500      CL =  1.2395
      Cm = -0.0531     CD =  0.01709   =>   CDf =  0.00644    CDp =  0.01065
      9.000   16.3790   0.017095   0.015161   0.001244  -0.013917    0.0196     #

 Point added to stored polar  1
 Point written to save file  /home/nesd/tmp/dynamicas/python/users/a/ASTRO/r_
 Point written to dump file /home/nesd/tmp/dynamicas/python/users/a/ASTRO/r_
 Calculating wake trajectory ...
 Calculating source influence matrix ...

 Solving BL system ...

 Side 1  free  transition at x/c =  0.0196    5
 Side 2 forced transition at x/c =  1.0000  101

   1   rms: 0.1108E-01   max: -.1236E+00   D at    3  2
       a =  9.600      CL =  1.2456
      Cm = -0.0525     CD =  0.01734   =>   CDf =  0.00593    CDp =  0.01141

 Side 1  free  transition at x/c =  0.0196    6
 Side 2 forced transition at x/c =  1.0000  100

   2   rms: 0.1019E+00   max: -.1785E+01   D at    2  1   RLX: 0.280
       a =  9.600      CL =  1.2445
      Cm = -0.0523     CD =  0.01739   =>   CDf =  0.00622    CDp =  0.01117

 Side 1  free  transition at x/c =  0.0153    5
 Side 2 forced transition at x/c =  1.0000  100

   3   rms: 0.5773E+00   max: -.3998E+01   D at    6  1   RLX: 0.125
       a =  9.600      CL =  1.2681
      Cm = -0.0586     CD =  0.01640   =>   CDf =  0.00594    CDp =  0.01046

 Side 1  free  transition at x/c =  0.0149    5
 Side 2 forced transition at x/c =  1.0000  100

   4   rms: 0.6212E-01   max: -.6215E+00   D at    6  1   RLX: 0.805
       a =  9.600      CL =  1.2619
      Cm = -0.0558     CD =  0.01641   =>   CDf =  0.00618    CDp =  0.01023

 Side 1  free  transition at x/c =  0.0224    6
 Side 2 forced transition at x/c =  1.0000  100

   5   rms: 0.3942E-01   max: -.8717E+00   D at    6  1   RLX: 0.574
       a =  9.600      CL =  1.2621
      Cm = -0.0551     CD =  0.01635   =>   CDf =  0.00632    CDp =  0.01003

 Side 1  free  transition at x/c =  0.0176    6
 Side 2 forced transition at x/c =  1.0000  100

   6   rms: 0.8725E-01   max: 0.1506E+01   D at    5  1   RLX: 0.578
       a =  9.600      CL =  1.2518
      Cm = -0.0535     CD =  0.01705   =>   CDf =  0.00638    CDp =  0.01067

 Side 1  free  transition at x/c =  0.0154    5
 Side 2 forced transition at x/c =  1.0000  100

   7   rms: 0.2655E-01   max: -.3221E+00   D at    6  1
       a =  9.600      CL =  1.2542
      Cm = -0.0541     CD =  0.01673   =>   CDf =  0.00622    CDp =  0.01051

 Side 1  free  transition at x/c =  0.0155    5
 Side 2 forced transition at x/c =  1.0000  100

   8   rms: 0.4066E-02   max: 0.5990E-01   D at    5  1
       a =  9.600      CL =  1.2526
      Cm = -0.0538     CD =  0.01689   =>   CDf =  0.00632    CDp =  0.01057

 Side 1  free  transition at x/c =  0.0155    5
 Side 2 forced transition at x/c =  1.0000  100

   9   rms: 0.4647E-03   max: 0.5980E-02   D at    5  1
       a =  9.600      CL =  1.2524
      Cm = -0.0538     CD =  0.01689   =>   CDf =  0.00631    CDp =  0.01059

 Side 1  free  transition at x/c =  0.0155    5
 Side 2 forced transition at x/c =  1.0000  100

  10   rms: 0.1817E-04   max: 0.1639E-03   D at    5  1
       a =  9.600      CL =  1.2524
      Cm = -0.0538     CD =  0.01689   =>   CDf =  0.00630    CDp =  0.01059
      9.000    7.8890   0.016891   0.015017   0.001010  -0.014006    0.0155     #

 Point added to stored polar  1
 Point written to save file  /home/nesd/tmp/dynamicas/python/users/a/ASTRO/r_
 Point written to dump file /home/nesd/tmp/dynamicas/python/users/a/ASTRO/r_
 Calculating wake trajectory ...
 Calculating source influence matrix ...

 Solving BL system ...

 Side 1  free  transition at x/c =  0.0155    5
 Side 2 forced transition at x/c =  1.0000  100

   1   rms: 0.2833E-01   max: -.3184E+00   D at    5  1
       a =  9.700      CL =  1.2660
      Cm = -0.0544     CD =  0.01663   =>   CDf =  0.00630    CDp =  0.01032

 Side 1  free  transition at x/c =  0.0202    6
 Side 2 forced transition at x/c =  1.0000  100

   2   rms: 0.5773E-01   max: -.1111E+01   D at    6  1   RLX: 0.450
       a =  9.700      CL =  1.2638
      Cm = -0.0536     CD =  0.01680   =>   CDf =  0.00633    CDp =  0.01047

 Side 1  free  transition at x/c =  0.0168    6
 Side 2 forced transition at x/c =  1.0000  100

   3   rms: 0.8854E-01   max: 0.1684E+01   D at    5  1   RLX: 0.891
       a =  9.700      CL =  1.2504
      Cm = -0.0517     CD =  0.01770   =>   CDf =  0.00636    CDp =  0.01134

 Side 1  free  transition at x/c =  0.0152    5
 Side 2 forced transition at x/c =  1.0000  100

   4   rms: 0.2357E+00   max: -.2156E+01   D at    6  1   RLX: 0.232
       a =  9.700      CL =  1.2666
      Cm = -0.0551     CD =  0.01674   =>   CDf =  0.00607    CDp =  0.01068

 Side 1  free  transition at x/c =  0.0150    5
 Side 2 forced transition at x/c =  1.0000  100

   5   rms: 0.3189E-01   max: -.3636E+00   D at    5  1
       a =  9.700      CL =  1.2646
      Cm = -0.0542     CD =  0.01668   =>   CDf =  0.00626    CDp =  0.01041

 Side 1  free  transition at x/c =  0.0154    5
 Side 2 forced transition at x/c =  1.0000  100

   6   rms: 0.7158E-02   max: 0.1323E+00   D at    5  1
       a =  9.700      CL =  1.2630
      Cm = -0.0539     CD =  0.01685   =>   CDf =  0.00636    CDp =  0.01049

 Side 1  free  transition at x/c =  0.0153    5
 Side 2 forced transition at x/c =  1.0000  100

   7   rms: 0.9420E-03   max: 0.1662E-01   D at    5  1
       a =  9.700      CL =  1.2628
      Cm = -0.0539     CD =  0.01685   =>   CDf =  0.00635    CDp =  0.01050

 Side 1  free  transition at x/c =  0.0152    5
 Side 2 forced transition at x/c =  1.0000  100

   8   rms: 0.2656E-04   max: 0.3565E-03   D at    5  1
       a =  9.700      CL =  1.2628
      Cm = -0.0539     CD =  0.01685   =>   CDf =  0.00634    CDp =  0.01051
      9.000    5.9312   0.016851   0.014954   0.000921  -0.014033    0.0152     #

 Point added to stored polar  1
 Point written to save file  /home/nesd/tmp/dynamicas/python/users/a/ASTRO/r_
 Point written to dump file /home/nesd/tmp/dynamicas/python/users/a/ASTRO/r_
 Calculating wake trajectory ...
 Calculating source influence matrix ...

 Solving BL system ...

 Side 1  free  transition at x/c =  0.0152    5
 Side 2 forced transition at x/c =  1.0000  100

   1   rms: 0.1194E-01   max: -.1703E+00   C at    5  1
       a =  9.800      CL =  1.2715
      Cm = -0.0537     CD =  0.01691   =>   CDf =  0.00635    CDp =  0.01057

 Side 1  free  transition at x/c =  0.0151    5
 Side 2 forced transition at x/c =  1.0000  100

   2   rms: 0.3203E-02   max: 0.5946E-01   D at    5  1
       a =  9.800      CL =  1.2708
      Cm = -0.0536     CD =  0.01695   =>   CDf =  0.00636    CDp =  0.01060

 Side 1  free  transition at x/c =  0.0150    5
 Side 2 forced transition at x/c =  1.0000  100

   3   rms: 0.1685E-03   max: 0.2991E-02   D at    5  1
       a =  9.800      CL =  1.2707
      Cm = -0.0536     CD =  0.01695   =>   CDf =  0.00635    CDp =  0.01060

 Side 1  free  transition at x/c =  0.0150    5
 Side 2 forced transition at x/c =  1.0000  100

   4   rms: 0.2637E-05   max: -.2489E-04   C at  100  2
       a =  9.800      CL =  1.2707
      Cm = -0.0536     CD =  0.01695   =>   CDf =  0.00635    CDp =  0.01060
      9.000    5.3297   0.016950   0.014966   0.000890  -0.014076    0.0150     #

 Point added to stored polar  1
 Point written to save file  /home/nesd/tmp/dynamicas/python/users/a/ASTRO/r_
 Point written to dump file /home/nesd/tmp/dynamicas/python/users/a/ASTRO/r_
 Calculating wake trajectory ...
 Calculating source influence matrix ...

 Solving BL system ...

 Side 1  free  transition at x/c =  0.0150    5
 Side 2 forced transition at x/c =  1.0000  100

   1   rms: 0.9592E-02   max: -.1183E+00   C at    5  1
       a =  9.900      CL =  1.2784
      Cm = -0.0532     CD =  0.01709   =>   CDf =  0.00635    CDp =  0.01073

 Side 1  free  transition at x/c =  0.0148    5
 Side 2 forced transition at x/c =  1.0000  100

   2   rms: 0.1418E-02   max: 0.2548E-01   D at    5  1
       a =  9.900      CL =  1.2780
      Cm = -0.0531     CD =  0.01710   =>   CDf =  0.00635    CDp =  0.01075

 Side 1  free  transition at x/c =  0.0147    5
 Side 2 forced transition at x/c =  1.0000  100

   3   rms: 0.3311E-04   max: 0.4913E-03   D at    5  1
       a =  9.900      CL =  1.2779
      Cm = -0.0531     CD =  0.01709   =>   CDf =  0.00635    CDp =  0.01075
      9.000    5.3921   0.017095   0.014999   0.000873  -0.014126    0.0147     #

 Point added to stored polar  1
 Point written to save file  /home/nesd/tmp/dynamicas/python/users/a/ASTRO/r_
 Point written to dump file /home/nesd/tmp/dynamicas/python/users/a/ASTRO/r_
 Calculating wake trajectory ...
 Calculating source influence matrix ...

 Solving BL system ...

 Side 1  free  transition at x/c =  0.0147    5
 Side 2 forced transition at x/c =  1.0000  100

   1   rms: 0.8965E-02   max: -.8286E-01   C at    5  1
       a = 10.000      CL =  1.2851
      Cm = -0.0527     CD =  0.01726   =>   CDf =  0.00635    CDp =  0.01091

 Side 1  free  transition at x/c =  0.0144    5
 Side 2 forced transition at x/c =  1.0000  100

   2   rms: 0.7156E-03   max: 0.1182E-01   D at    5  1
       a = 10.000      CL =  1.2848
      Cm = -0.0526     CD =  0.01726   =>   CDf =  0.00635    CDp =  0.01092

 Side 1  free  transition at x/c =  0.0144    5
 Side 2 forced transition at x/c =  1.0000  100

   3   rms: 0.1166E-04   max: -.1479E-03   C at  100  2
       a = 10.000      CL =  1.2848
      Cm = -0.0526     CD =  0.01726   =>   CDf =  0.00634    CDp =  0.01092
      9.000    5.4595   0.017262   0.015040   0.000861  -0.014179    0.0144     #

 Point added to stored polar  1
 Point written to save file  /home/nesd/tmp/dynamicas/python/users/a/ASTRO/r_
 Point written to dump file /home/nesd/tmp/dynamicas/python/users/a/ASTRO/r_

.OPERva   c>  
 XFOIL   c>  