  
       XFOIL         Version 6.99
  
 Calculated polar for:                                                 
  
 1 1 Reynolds number fixed          Mach number fixed         
  
 xtrf =   1.000 (top)        1.000 (bottom)  
 Mach =   0.000     Re =     0.421 e 6     Ncrit =   9.000  9.000
  
   alpha    CL        CD       CDp       CM     Top_Xtr  Bot_Xtr  Top_Itr  Bot_Itr
  ------ -------- --------- --------- -------- -------- -------- -------- --------
   0.000   0.2063   0.00679  -0.00637  -0.0378   0.7170   0.8311  29.6968 186.0372
   1.000   0.3416   0.00746  -0.00586  -0.0418   0.6264   0.9507  38.8420 198.0558
   2.000   0.5101   0.00869  -0.00580  -0.0540   0.5068   0.9818  50.8910 201.1751
   3.000   0.6618   0.00926  -0.00617  -0.0639   0.4296   0.9986  58.6615 202.8616
   4.000   0.7453   0.00973  -0.00645  -0.0593   0.3796   1.0000  63.6953 203.0000
   5.000   0.8221   0.01034  -0.00683  -0.0531   0.3303   1.0000  68.6478 203.0000
   6.000   0.8973   0.01123  -0.00733  -0.0466   0.2602   1.0000  75.6143 203.0000
   7.000   0.9603   0.01308  -0.00752  -0.0383   0.1466   1.0000  86.8301 203.0000
   8.000   0.9988   0.01657  -0.00669  -0.0259   0.0331   1.0000  98.2931 203.0000
   9.000   1.0472   0.01873  -0.00672  -0.0153   0.0251   1.0000  99.1277 203.0000
  10.000   1.0940   0.02079  -0.00691  -0.0055   0.0213   1.0000  99.5276 203.0000
