
 ===================================================
  XFOIL Version 6.99
  Copyright (C) 2000   Mark Drela, Harold Youngren

  This software comes with ABSOLUTELY NO WARRANTY,
    subject to the GNU General Public License.

  Caveat computor
 ===================================================

 File  xfoil.def  not found

   QUIT    Exit program

  .OPER    Direct operating point(s)
  .MDES    Complex mapping design routine
  .QDES    Surface speed design routine
  .GDES    Geometry design routine

   SAVE f  Write airfoil to labeled coordinate file
   PSAV f  Write airfoil to plain coordinate file
   ISAV f  Write airfoil to ISES coordinate file
   MSAV f  Write airfoil to MSES coordinate file
   REVE    Reverse written-airfoil node ordering
   DELI i  Change written-airfoil file delimiters

   LOAD f  Read buffer airfoil from coordinate file
   NACA i  Set NACA 4,5-digit airfoil and buffer airfoil
   INTE    Set buffer airfoil by interpolating two airfoils
   NORM    Buffer airfoil normalization toggle
   HALF    Halve the number of points in buffer airfoil
   XYCM rr Change CM reference location, currently  0.25000 0.00000

   BEND    Display structural properties of current airfoil

   PCOP    Set current-airfoil panel nodes directly from buffer airfoil points
   PANE    Set current-airfoil panel nodes ( 160 ) based on curvature
  .PPAR    Show/change paneling

  .PLOP    Plotting options

   WDEF f  Write  current-settings file
   RDEF f  Reread current-settings file
   NAME s  Specify new airfoil name
   NINC    Increment name version number

   Z       Zoom    | (available in all menus)
   U       Unzoom  | 

 XFOIL   c>  
 XFOIL   c>  
 Plain airfoil file

Enter airfoil name   s>  
 Number of input coordinate points: 203
 Counterclockwise ordering
 Max thickness =     0.080036  at x =   0.298
 Max camber    =     0.019680  at x =   0.406

  LE  x,y  =  -0.00003   0.00054  |   Chord =   1.00003
  TE  x,y  =   1.00000   0.00000  |

 Current airfoil nodes set from buffer airfoil nodes ( 203 )

 WARNING: Poor input coordinate distribution
          Excessive panel angle   82.7  at i = 102
          Repaneling with PANE and/or PPAR suggested
           (doing GDES,CADD before repaneling _may_
            improve excessively coarse LE spacing

 XFOIL   c>   ...............................................

  G raphics-enable flag:        T
  S ize of plot object          10.00"
  A spect ratio of plot object   0.5500
  P age dimensions              11.00 x  8.50"
  M argins from page edges       0.00",  0.00"
  F ont size (relative)          0.0150
  W indow/screen size fraction   0.8000
  B lowup input method:        Cursor    
  O rientation of plot:        Landscape 
  C olor PostScript output?     T
  L ine colors for top,bottom    8  3

      Option, Value   (or <Return>)    c>   ...............................................

  G raphics-enable flag:        F
  S ize of plot object          10.00"
  A spect ratio of plot object   0.5500
  P age dimensions              11.00 x  8.50"
  M argins from page edges       0.00",  0.00"
  F ont size (relative)          0.0150
  W indow/screen size fraction   0.8000
  B lowup input method:        Cursor    
  O rientation of plot:        Landscape 
  C olor PostScript output?     T
  L ine colors for top,bottom    8  3

      Option, Value   (or <Return>)    c>  
 XFOIL   c>  
.OPERi   c>  
 M  =    0.0000
 Re =  0.7810E+07

.OPERv   c>  
.OPERv   c>  
 Polar  1 newly created for accumulation
 Airfoil archived with polar:                                                 

Enter  polar save filename  OR  <return> for no file   s>  
 New polar save file available

Enter  polar dump filename  OR  <return> for no file   s>  
 New polar dump file available

 Polar accumulation enabled

.OPERva   c>   Calculating unit vorticity distributions ...
 Calculating wake trajectory ...
 Calculating source influence matrix ...

 Solving BL system ...

 Initializing BL ...
    side            1  ...
 MRCHUE: Inverse mode at   3     Hk =  35.346
 TRCHEK2: N2 convergence failed.
 x:  0.00738  0.01827  0.01827  N:  0.000  9.000  9.282  Nx: 852.475   dN: 0.282E+00
 TRCHEK2: N2 convergence failed.
 x:  0.00738  0.01827  0.01827  N:  0.000  9.000  9.318  Nx: 855.734   dN: 0.318E+00
 TRCHEK2: N2 convergence failed.
 x:  0.00738  0.01827  0.01827  N:  0.000  9.000  9.348  Nx: 858.496   dN: 0.348E+00
 TRCHEK2: N2 convergence failed.
 x:  0.00738  0.01827  0.01827  N:  0.000  9.000  9.373  Nx: 860.817   dN: 0.373E+00
 TRCHEK2: N2 convergence failed.
 x:  0.00738  0.01827  0.01827  N:  0.000  9.000  9.394  Nx: 862.739   dN: 0.394E+00
 TRCHEK2: N2 convergence failed.
 x:  0.00738  0.01827  0.01827  N:  0.000  9.000  9.411  Nx: 864.286   dN: 0.411E+00
 TRCHEK2: N2 convergence failed.
 x:  0.00738  0.01827  0.01827  N:  0.000  9.000  9.422  Nx: 865.289   dN: 0.422E+00
 TRCHEK2: N2 convergence failed.
 x:  0.00738  0.01827  0.01827  N:  0.000  9.000  9.422  Nx: 865.279   dN: 0.422E+00
 MRCHUE: Convergence failed at   3  side 1    Res =  0.4804E-03
 TRCHEK2: N2 convergence failed.
 x:  0.00738  0.01827  0.01827  N:  0.000  9.000  9.422  Nx: 865.279   dN: 0.422E+00
 MRCHUE: Inverse mode at   4     Hk =   2.500
 MRCHUE: Convergence failed at   4  side 1    Res =  0.7280E+01
 MRCHUE: Inverse mode at   5     Hk =   2.500
 MRCHUE: Convergence failed at   5  side 1    Res =  0.5567E+01
 MRCHUE: Inverse mode at   6     Hk =   2.500
 MRCHUE: Convergence failed at   6  side 1    Res =  0.3891E+01
 MRCHUE: Inverse mode at   7     Hk =   2.500
 MRCHUE: Convergence failed at   7  side 1    Res =  0.2243E+01
 MRCHUE: Inverse mode at   8     Hk =   2.500
 MRCHUE: Convergence failed at   8  side 1    Res =  0.6795E+00
 MRCHUE: Inverse mode at   9     Hk =   2.500
 MRCHUE: Convergence failed at   9  side 1    Res =  0.4150E+01
 MRCHUE: Inverse mode at  10     Hk =   2.500
 MRCHUE: Convergence failed at  10  side 1    Res =  0.4418E+01
 MRCHUE: Inverse mode at  11     Hk =   2.500
 MRCHUE: Convergence failed at  11  side 1    Res =  0.4775E+01
 MRCHUE: Inverse mode at  12     Hk =   2.500
 MRCHUE: Convergence failed at  12  side 1    Res =  0.5332E+01
 MRCHUE: Inverse mode at  13     Hk =   2.785
 MRCHUE: Convergence failed at  13  side 1    Res =  0.4117E+01
 MRCHUE: Inverse mode at  14     Hk =   4.203
 MRCHUE: Convergence failed at  14  side 1    Res =  0.2115E+01
 MRCHUE: Inverse mode at  15     Hk =   5.450
 MRCHUE: Convergence failed at  15  side 1    Res =  0.1418E+01
 MRCHUE: Inverse mode at  16     Hk =   6.556
 MRCHUE: Convergence failed at  16  side 1    Res =  0.1419E+00
 MRCHUE: Inverse mode at  17     Hk =   7.548
 MRCHUE: Convergence failed at  17  side 1    Res =  0.4981E+00
 MRCHUE: Inverse mode at  18     Hk =   8.443
 MRCHUE: Convergence failed at  18  side 1    Res =  0.5810E+00
 MRCHUE: Inverse mode at  19     Hk =   9.256
 MRCHUE: Convergence failed at  19  side 1    Res =  0.5620E+00
 MRCHUE: Inverse mode at  20     Hk =   9.999
 MRCHUE: Convergence failed at  20  side 1    Res =  0.4956E+00
 MRCHUE: Inverse mode at  21     Hk =  10.682
 MRCHUE: Convergence failed at  21  side 1    Res =  0.4057E+00
 MRCHUE: Inverse mode at  22     Hk =  11.312
 MRCHUE: Convergence failed at  22  side 1    Res =  0.3044E+00
 MRCHUE: Inverse mode at  23     Hk =  11.896
 MRCHUE: Convergence failed at  23  side 1    Res =  0.1983E+00
 MRCHUE: Inverse mode at  24     Hk =  12.439
 MRCHUE: Convergence failed at  24  side 1    Res =  0.9103E-01
 MRCHUE: Inverse mode at  25     Hk =  12.416
 MRCHUE: Inverse mode at  26     Hk =  12.366
 MRCHUE: Inverse mode at  27     Hk =  12.319
 MRCHUE: Inverse mode at  28     Hk =  12.273
 MRCHUE: Inverse mode at  29     Hk =  12.229
 MRCHUE: Inverse mode at  30     Hk =  12.187
 MRCHUE: Inverse mode at  31     Hk =  12.146
 MRCHUE: Inverse mode at  32     Hk =  12.106
 MRCHUE: Inverse mode at  33     Hk =  12.068
 MRCHUE: Inverse mode at  34     Hk =  12.030
 MRCHUE: Inverse mode at  35     Hk =  11.994
 MRCHUE: Inverse mode at  36     Hk =  11.959
 MRCHUE: Inverse mode at  37     Hk =  11.924
 MRCHUE: Inverse mode at  38     Hk =  11.891
 MRCHUE: Inverse mode at  39     Hk =  11.858
 MRCHUE: Inverse mode at  40     Hk =  11.826
 MRCHUE: Inverse mode at  41     Hk =  11.794
 MRCHUE: Inverse mode at  42     Hk =  11.764
 MRCHUE: Inverse mode at  43     Hk =  11.734
 MRCHUE: Inverse mode at  44     Hk =  11.704
 MRCHUE: Inverse mode at  45     Hk =  11.676
 MRCHUE: Inverse mode at  46     Hk =  11.647
 MRCHUE: Inverse mode at  47     Hk =  11.620
 MRCHUE: Inverse mode at  48     Hk =  11.592
 MRCHUE: Inverse mode at  49     Hk =  11.565
 MRCHUE: Inverse mode at  50     Hk =  11.539
 MRCHUE: Inverse mode at  51     Hk =  11.513
 MRCHUE: Inverse mode at  52     Hk =  11.487
 MRCHUE: Inverse mode at  53     Hk =  11.462
 MRCHUE: Inverse mode at  54     Hk =  11.437
 MRCHUE: Inverse mode at  55     Hk =  11.413
 MRCHUE: Inverse mode at  56     Hk =  11.389
 MRCHUE: Inverse mode at  57     Hk =  11.365
 MRCHUE: Inverse mode at  58     Hk =  11.341
 MRCHUE: Inverse mode at  59     Hk =  11.318
 MRCHUE: Inverse mode at  60     Hk =  11.295
 MRCHUE: Inverse mode at  61     Hk =  11.273
 MRCHUE: Inverse mode at  62     Hk =  11.250
 MRCHUE: Inverse mode at  63     Hk =  11.228
 MRCHUE: Inverse mode at  64     Hk =  11.206
 MRCHUE: Inverse mode at  65     Hk =  11.185
 MRCHUE: Inverse mode at  66     Hk =  11.163
 MRCHUE: Inverse mode at  67     Hk =  11.142
 MRCHUE: Inverse mode at  68     Hk =  11.121
 MRCHUE: Inverse mode at  69     Hk =  11.101
 MRCHUE: Inverse mode at  70     Hk =  11.080
 MRCHUE: Inverse mode at  71     Hk =  11.060
 MRCHUE: Inverse mode at  72     Hk =  11.040
 MRCHUE: Inverse mode at  73     Hk =  11.020
 MRCHUE: Inverse mode at  74     Hk =  11.001
 MRCHUE: Inverse mode at  75     Hk =  10.981
 MRCHUE: Inverse mode at  76     Hk =  10.962
 MRCHUE: Inverse mode at  77     Hk =  10.943
 MRCHUE: Inverse mode at  78     Hk =  10.924
 MRCHUE: Inverse mode at  79     Hk =  10.906
 MRCHUE: Inverse mode at  80     Hk =  10.887
 MRCHUE: Inverse mode at  81     Hk =  10.869
 MRCHUE: Inverse mode at  82     Hk =  10.851
 MRCHUE: Inverse mode at  83     Hk =  10.833
 MRCHUE: Inverse mode at  84     Hk =  10.815
 MRCHUE: Inverse mode at  85     Hk =  10.797
 MRCHUE: Inverse mode at  86     Hk =  10.779
 MRCHUE: Inverse mode at  87     Hk =  10.762
 MRCHUE: Inverse mode at  88     Hk =  10.745
 MRCHUE: Inverse mode at  89     Hk =  10.727
 MRCHUE: Inverse mode at  90     Hk =  10.710
 MRCHUE: Inverse mode at  91     Hk =  10.693
 MRCHUE: Inverse mode at  92     Hk =  10.677
 MRCHUE: Inverse mode at  93     Hk =  10.660
 MRCHUE: Inverse mode at  94     Hk =  10.644
 MRCHUE: Inverse mode at  95     Hk =  10.627
 MRCHUE: Inverse mode at  96     Hk =  10.611
 MRCHUE: Inverse mode at  97     Hk =  10.595
 MRCHUE: Inverse mode at  98     Hk =  10.579
 MRCHUE: Inverse mode at  99     Hk =  10.563
 MRCHUE: Inverse mode at 100     Hk =  10.547
 MRCHUE: Inverse mode at 101     Hk =  10.531
 MRCHUE: Inverse mode at 102     Hk =  10.516
    side            2  ...
 MRCHUE: Inverse mode at   4     Hk =  21.602
 MRCHUE: Inverse mode at   5     Hk =   2.500
 MRCHUE: Inverse mode at 105     Hk =   8.797
 MRCHUE: Inverse mode at 106     Hk =   7.793
 MRCHUE: Inverse mode at 107     Hk =   7.037
 MRCHUE: Inverse mode at 108     Hk =   6.443
 MRCHUE: Inverse mode at 109     Hk =   5.959
 MRCHUE: Inverse mode at 110     Hk =   5.557
 MRCHUE: Inverse mode at 111     Hk =   5.216
 MRCHUE: Inverse mode at 112     Hk =   4.921
 MRCHUE: Inverse mode at 113     Hk =   4.665
 MRCHUE: Inverse mode at 114     Hk =   4.439
 MRCHUE: Inverse mode at 115     Hk =   4.238
 MRCHUE: Inverse mode at 116     Hk =   4.059
 MRCHUE: Inverse mode at 117     Hk =   3.897
 MRCHUE: Inverse mode at 118     Hk =   3.751
 MRCHUE: Inverse mode at 119     Hk =   3.619
 MRCHUE: Inverse mode at 120     Hk =   3.499
 MRCHUE: Inverse mode at 121     Hk =   3.389
 MRCHUE: Convergence failed at 122  side 2    Res =  0.7841E-01

 TRCHEK2: N2 convergence failed.
 x:  0.00738  0.01827  0.01827  N:  0.000  9.000  9.422  Nx: 865.279   dN: 0.422E+00
 MRCHDU: Convergence failed at   4  side 1    Res =  0.8262E-05
 MRCHDU: Convergence failed at   8  side 1    Res =  0.1321E+01
 MRCHDU: Convergence failed at   9  side 1    Res =  0.1244E+01
 MRCHDU: Convergence failed at  10  side 1    Res =  0.1193E+01
 MRCHDU: Convergence failed at  11  side 1    Res =  0.1147E+01
 MRCHDU: Convergence failed at  12  side 1    Res =  0.1139E+01
 MRCHDU: Convergence failed at  13  side 1    Res =  0.1140E+01
 MRCHDU: Convergence failed at  14  side 1    Res =  0.1143E+01
 MRCHDU: Convergence failed at  15  side 1    Res =  0.1144E+01
 MRCHDU: Convergence failed at  16  side 1    Res =  0.1150E+01
 MRCHDU: Convergence failed at  17  side 1    Res =  0.1164E+01
 MRCHDU: Convergence failed at  18  side 1    Res =  0.1183E+01
 MRCHDU: Convergence failed at  19  side 1    Res =  0.1207E+01
 MRCHDU: Convergence failed at  20  side 1    Res =  0.1235E+01
 MRCHDU: Convergence failed at  21  side 1    Res =  0.1265E+01
 MRCHDU: Convergence failed at  22  side 1    Res =  0.1297E+01
 MRCHDU: Convergence failed at  23  side 1    Res =  0.1330E+01
 MRCHDU: Convergence failed at  24  side 1    Res =  0.1949E+01
 MRCHDU: Convergence failed at  25  side 1    Res =  0.1960E+01
 MRCHDU: Convergence failed at  26  side 1    Res =  0.1969E+01
 MRCHDU: Convergence failed at  27  side 1    Res =  0.1977E+01
 MRCHDU: Convergence failed at  28  side 1    Res =  0.1984E+01
 MRCHDU: Convergence failed at  29  side 1    Res =  0.2361E+01
 MRCHDU: Convergence failed at  30  side 1    Res =  0.1995E+01
 MRCHDU: Convergence failed at  31  side 1    Res =  0.2350E+01
 MRCHDU: Convergence failed at  32  side 1    Res =  0.2334E+01
 MRCHDU: Convergence failed at  33  side 1    Res =  0.2320E+01
 MRCHDU: Convergence failed at  34  side 1    Res =  0.2306E+01
 MRCHDU: Convergence failed at  35  side 1    Res =  0.2294E+01
 MRCHDU: Convergence failed at  36  side 1    Res =  0.2282E+01
 MRCHDU: Convergence failed at  37  side 1    Res =  0.2271E+01
 MRCHDU: Convergence failed at  38  side 1    Res =  0.2260E+01
 MRCHDU: Convergence failed at  39  side 1    Res =  0.2250E+01
 MRCHDU: Convergence failed at  40  side 1    Res =  0.2241E+01
 MRCHDU: Convergence failed at  41  side 1    Res =  0.2232E+01
 MRCHDU: Convergence failed at  42  side 1    Res =  0.2225E+01
 MRCHDU: Convergence failed at  43  side 1    Res =  0.2218E+01
 MRCHDU: Convergence failed at  44  side 1    Res =  0.2210E+01
 MRCHDU: Convergence failed at  45  side 1    Res =  0.2201E+01
 MRCHDU: Convergence failed at  46  side 1    Res =  0.2192E+01
 MRCHDU: Convergence failed at  47  side 1    Res =  0.2183E+01
 MRCHDU: Convergence failed at  48  side 1    Res =  0.2175E+01
 MRCHDU: Convergence failed at  49  side 1    Res =  0.2166E+01
 MRCHDU: Convergence failed at  50  side 1    Res =  0.2158E+01
 MRCHDU: Convergence failed at  51  side 1    Res =  0.2149E+01
 MRCHDU: Convergence failed at  52  side 1    Res =  0.2141E+01
 MRCHDU: Convergence failed at  53  side 1    Res =  0.2133E+01
 MRCHDU: Convergence failed at  54  side 1    Res =  0.2124E+01
 MRCHDU: Convergence failed at  55  side 1    Res =  0.2116E+01
 MRCHDU: Convergence failed at  56  side 1    Res =  0.2108E+01
 MRCHDU: Convergence failed at  57  side 1    Res =  0.2100E+01
 MRCHDU: Convergence failed at  58  side 1    Res =  0.2091E+01
 MRCHDU: Convergence failed at  59  side 1    Res =  0.2083E+01
 MRCHDU: Convergence failed at  60  side 1    Res =  0.2075E+01
 MRCHDU: Convergence failed at  61  side 1    Res =  0.2067E+01
 MRCHDU: Convergence failed at  62  side 1    Res =  0.2059E+01
 MRCHDU: Convergence failed at  63  side 1    Res =  0.2050E+01
 MRCHDU: Convergence failed at  64  side 1    Res =  0.2042E+01
 MRCHDU: Convergence failed at  65  side 1    Res =  0.2033E+01
 MRCHDU: Convergence failed at  66  side 1    Res =  0.2025E+01
 MRCHDU: Convergence failed at  67  side 1    Res =  0.2016E+01
 MRCHDU: Convergence failed at  68  side 1    Res =  0.2008E+01
 MRCHDU: Convergence failed at  69  side 1    Res =  0.2000E+01
 MRCHDU: Convergence failed at  70  side 1    Res =  0.1991E+01
 MRCHDU: Convergence failed at  71  side 1    Res =  0.1983E+01
 MRCHDU: Convergence failed at  72  side 1    Res =  0.1974E+01
 MRCHDU: Convergence failed at  73  side 1    Res =  0.1966E+01
 MRCHDU: Convergence failed at  74  side 1    Res =  0.1958E+01
 MRCHDU: Convergence failed at  75  side 1    Res =  0.1949E+01
 MRCHDU: Convergence failed at  76  side 1    Res =  0.1941E+01
 MRCHDU: Convergence failed at  77  side 1    Res =  0.1932E+01
 MRCHDU: Convergence failed at  78  side 1    Res =  0.1924E+01
 MRCHDU: Convergence failed at  79  side 1    Res =  0.1916E+01
 MRCHDU: Convergence failed at  80  side 1    Res =  0.1907E+01
 MRCHDU: Convergence failed at  81  side 1    Res =  0.1899E+01
 MRCHDU: Convergence failed at  82  side 1    Res =  0.1890E+01
 MRCHDU: Convergence failed at  83  side 1    Res =  0.1882E+01
 MRCHDU: Convergence failed at  84  side 1    Res =  0.1873E+01
 MRCHDU: Convergence failed at  85  side 1    Res =  0.1865E+01
 MRCHDU: Convergence failed at  86  side 1    Res =  0.1856E+01
 MRCHDU: Convergence failed at  87  side 1    Res =  0.1848E+01
 MRCHDU: Convergence failed at  88  side 1    Res =  0.1839E+01
 MRCHDU: Convergence failed at  89  side 1    Res =  0.1831E+01
 MRCHDU: Convergence failed at  90  side 1    Res =  0.1822E+01
 MRCHDU: Convergence failed at  91  side 1    Res =  0.1814E+01
 MRCHDU: Convergence failed at  92  side 1    Res =  0.1805E+01
 MRCHDU: Convergence failed at  93  side 1    Res =  0.1797E+01
 MRCHDU: Convergence failed at  94  side 1    Res =  0.1788E+01
 MRCHDU: Convergence failed at  95  side 1    Res =  0.1780E+01
 MRCHDU: Convergence failed at  96  side 1    Res =  0.1771E+01
 MRCHDU: Convergence failed at  97  side 1    Res =  0.1763E+01
 MRCHDU: Convergence failed at  98  side 1    Res =  0.1754E+01
 MRCHDU: Convergence failed at  99  side 1    Res =  0.1746E+01
 MRCHDU: Convergence failed at 100  side 1    Res =  0.1737E+01
 MRCHDU: Convergence failed at 101  side 1    Res =  0.1729E+01
 MRCHDU: Convergence failed at 102  side 1    Res =  0.1720E+01
 TRCHEK2: N2 convergence failed.
 x:  0.00738  0.01827  0.01827  N:  0.000  9.000  9.422  Nx: 865.279   dN: 0.422E+00
 Side 1  free  transition at x/c =  0.0183    3
 Side 2  free  transition at x/c =  0.0210    4

   1   rms: 0.3095E+01   max: 0.3842E+02   D at    3  1   RLX: 0.039
       a = -2.000      CL = -0.6753
      Cm =  0.1094     CD =  0.02161   =>   CDf =  0.00288    CDp =  0.01873

 TRCHEK2: N2 convergence failed.
 x:  0.00580  0.00880  0.01669  N:  0.000  9.000 33.700  Nx: 846.163   dN: 0.508E+03
 TRCHEK2: N2 convergence failed.
 x:  0.00580  0.00868  0.01669  N:  0.000  9.000 33.050  Nx:1196.671   dN:-0.618E+03
 TRCHEK2: N2 convergence failed.
 x:  0.00580  0.00864  0.01669  N:  0.000  9.000 33.481  Nx: 844.498   dN:-0.622E+03
 TRCHEK2: N2 convergence failed.
 x:  0.00580  0.00874  0.01669  N:  0.000  9.000 34.290  Nx: 558.507   dN: 0.328E+04
 TRCHEK2: N2 convergence failed.
 x:  0.00580  0.00868  0.01669  N:  0.000  9.000 33.011  Nx: 665.934   dN:-0.122E+04
 TRCHEK2: N2 convergence failed.
 x:  0.00580  0.00867  0.01669  N:  0.000  9.000 33.104  Nx: 564.067   dN:-0.907E+03
 MRCHDU: Convergence failed at   4  side 1    Res =  0.1501E+01
 MRCHDU: Convergence failed at  11  side 1    Res =  0.4403E+00
 MRCHDU: Convergence failed at  12  side 1    Res =  0.3984E+00
 MRCHDU: Convergence failed at  13  side 1    Res =  0.3370E+00
 MRCHDU: Convergence failed at  14  side 1    Res =  0.2330E+00
 MRCHDU: Convergence failed at  15  side 1    Res =  0.3554E-01
 MRCHDU: Convergence failed at  16  side 1    Res =  0.7393E-03
 Side 1  free  transition at x/c =  0.0162    3
 Side 2  free  transition at x/c =  0.0353    6

   2   rms: 0.1057E+01   max: -.9136E+01   D at   15  1   RLX: 0.055
       a = -2.000      CL = -0.7550
      Cm =  0.1339     CD =  0.04287   =>   CDf =  0.00306    CDp =  0.03982

 MRCHDU: Convergence failed at  15  side 1    Res =  0.2683E+00
 MRCHDU: Convergence failed at  16  side 1    Res =  0.1212E+01
 Side 1  free  transition at x/c =  0.0164    3
 Side 2  free  transition at x/c =  0.0356    6

   3   rms: 0.1318E+01   max: -.4096E+01   D at  122  2   RLX: 0.122
       a = -2.000      CL = -0.7822
      Cm =  0.1481     CD =  0.03637   =>   CDf =  0.00302    CDp =  0.03335

 Side 1  free  transition at x/c =  0.0171    3
 Side 2  free  transition at x/c =  0.0364    6

   4   rms: 0.1605E+01   max: -.5313E+01   D at   16  1   RLX: 0.094
       a = -2.000      CL = -0.7382
      Cm =  0.1439     CD =  0.03359   =>   CDf =  0.00298    CDp =  0.03061

 Side 1  free  transition at x/c =  0.0175    3
 Side 2  free  transition at x/c =  0.0312    5

   5   rms: 0.2929E+01   max: 0.3659E+02   C at    5  2   RLX: 0.037
       a = -2.000      CL = -0.7205
      Cm =  0.1426     CD =  0.03407   =>   CDf =  0.00295    CDp =  0.03112

 MRCHDU: Convergence failed at  14  side 1    Res =  0.3120E+01
 MRCHDU: Convergence failed at  15  side 1    Res =  0.2967E+01
 MRCHDU: Convergence failed at  16  side 1    Res =  0.2041E+01
 Side 1  free  transition at x/c =  0.0177    3
 Side 2  free  transition at x/c =  0.0300    5

   6   rms: 0.2418E+01   max: 0.1763E+02   C at    5  2   RLX: 0.047
       a = -2.000      CL = -0.6494
      Cm =  0.1264     CD =  0.03418   =>   CDf =  0.00294    CDp =  0.03124

 Side 1  free  transition at x/c =  0.0180    3
 Side 2  free  transition at x/c =  0.0286    5

   7   rms: 0.4313E+01   max: 0.1832E+02   C at    5  2   RLX: 0.032
       a = -2.000      CL = -0.6087
      Cm =  0.1261     CD =  0.03816   =>   CDf =  0.00295    CDp =  0.03521

 Side 1  free  transition at x/c =  0.0181    3
 Side 2  free  transition at x/c =  0.0276    5

   8   rms: 0.2122E+01   max: -.9157E+01   D at   57  1   RLX: 0.055
       a = -2.000      CL = -0.5824
      Cm =  0.1270     CD =  0.03584   =>   CDf =  0.00311    CDp =  0.03273

 Side 1  free  transition at x/c =  0.0182    3
 Side 2  free  transition at x/c =  0.0264    5

   9   rms: 0.1706E+01   max: -.6385E+01   D at   57  1   RLX: 0.078
       a = -2.000      CL = -0.5428
      Cm =  0.1181     CD =  0.03321   =>   CDf =  0.00325    CDp =  0.02996

 Side 1  free  transition at x/c =  0.0183    3
 Side 2  free  transition at x/c =  0.0250    5

  10   rms: 0.1491E+01   max: -.4434E+01   D at   16  1   RLX: 0.113
       a = -2.000      CL = -0.5091
      Cm =  0.1059     CD =  0.02704   =>   CDf =  0.00346    CDp =  0.02358

 MRCHDU: Convergence failed at   4  side 1    Res =  0.4819E+02
 Side 1  free  transition at x/c =  0.0223    4
 Side 2  free  transition at x/c =  0.0232    5

  11   rms: 0.1446E+01   max: -.5538E+01   D at   69  1   RLX: 0.090
       a = -2.000      CL = -0.4565
      Cm =  0.1060     CD =  0.01327   =>   CDf =  0.00380    CDp =  0.00947

 Side 1  free  transition at x/c =  0.0231    4
 Side 2  free  transition at x/c =  0.0221    5

  12   rms: 0.3302E+01   max: -.1731E+02   D at   67  1   RLX: 0.029
       a = -2.000      CL = -0.4439
      Cm =  0.1056     CD =  0.01088   =>   CDf =  0.00392    CDp =  0.00696

 Side 1  free  transition at x/c =  0.0230    4
 Side 2  free  transition at x/c =  0.0217    5

  13   rms: 0.3236E+01   max: -.1666E+02   D at   74  1   RLX: 0.030
       a = -2.000      CL = -0.4149
      Cm =  0.0996     CD =  0.00962   =>   CDf =  0.00397    CDp =  0.00565

 Side 1  free  transition at x/c =  0.0227    4
 Side 2  free  transition at x/c =  0.0213    4

  14   rms: 0.8448E+01   max: 0.5568E+02   D at   61  1   RLX: 0.011
       a = -2.000      CL = -0.3989
      Cm =  0.0954     CD =  0.01049   =>   CDf =  0.00403    CDp =  0.00646

 MRCHDU: Convergence failed at  81  side 1    Res =  0.2641E+02
 Side 1  free  transition at x/c =  0.0226    4
 Side 2  free  transition at x/c =  0.0213    4

  15   rms: 0.2893E+01   max: -.1392E+02   D at   81  1   RLX: 0.036
       a = -2.000      CL = -0.3597
      Cm =  0.0853     CD =  0.00836   =>   CDf =  0.00401    CDp =  0.00435

 Side 1  free  transition at x/c =  0.0223    4
 Side 2  free  transition at x/c =  0.0213    4

  16   rms: 0.2032E+01   max: -.9816E+01   D at   87  1   RLX: 0.051
       a = -2.000      CL = -0.3180
      Cm =  0.0760     CD =  0.00763   =>   CDf =  0.00407    CDp =  0.00356

 Side 1  free  transition at x/c =  0.0219    4
 Side 2  free  transition at x/c =  0.0213    4

  17   rms: 0.1501E+01   max: -.8176E+01   D at  105  2   RLX: 0.061
       a = -2.000      CL = -0.2772
      Cm =  0.0657     CD =  0.00695   =>   CDf =  0.00416    CDp =  0.00280

 Side 1  free  transition at x/c =  0.0215    4
 Side 2  free  transition at x/c =  0.0212    4

  18   rms: 0.1065E+01   max: -.5470E+01   D at  105  2   RLX: 0.091
       a = -2.000      CL = -0.2316
      Cm =  0.0530     CD =  0.00634   =>   CDf =  0.00425    CDp =  0.00209

 MRCHDU: Convergence failed at 105  side 2    Res =  0.1038E-01
 Side 1  free  transition at x/c =  0.0211    4
 Side 2  free  transition at x/c =  0.0212    4

  19   rms: 0.8349E+00   max: -.3720E+01   D at   93  1   RLX: 0.134
       a = -2.000      CL = -0.1750
      Cm =  0.0362     CD =  0.00592   =>   CDf =  0.00440    CDp =  0.00152

 Side 1  free  transition at x/c =  0.0206    4
 Side 2  free  transition at x/c =  0.0211    4

  20   rms: 0.8543E+01   max: 0.5384E+02   D at   61  1   RLX: 0.008
       a = -2.000      CL = -0.1533
      Cm =  0.0311     CD =  0.00683   =>   CDf =  0.00462    CDp =  0.00221

 Side 1  free  transition at x/c =  0.0204    4
 Side 2  free  transition at x/c =  0.0211    4

  21   rms: 0.5412E+00   max: -.2693E+01   D at   98  1   RLX: 0.186
       a = -2.000      CL = -0.0877
      Cm =  0.0104     CD =  0.00715   =>   CDf =  0.00457    CDp =  0.00258

 Side 1  free  transition at x/c =  0.0198    4
 Side 2  free  transition at x/c =  0.0211    4

  22   rms: 0.3993E+00   max: -.1812E+01   D at   98  1   RLX: 0.276
       a = -2.000      CL = -0.0386
      Cm = -0.0098     CD =  0.00673   =>   CDf =  0.00482    CDp =  0.00191

 Side 1  free  transition at x/c =  0.0195    4
 Side 2  free  transition at x/c =  0.0210    4

  23   rms: 0.2920E+00   max: -.8641E+00   D at  104  2   RLX: 0.417
       a = -2.000      CL = -0.0067
      Cm = -0.0281     CD =  0.00668   =>   CDf =  0.00517    CDp =  0.00151

 Side 1  free  transition at x/c =  0.0194    4
 Side 2  free  transition at x/c =  0.0209    4

  24   rms: 0.1542E+00   max: 0.5757E+00   D at  105  2   RLX: 0.691
       a = -2.000      CL =  0.0095
      Cm = -0.0432     CD =  0.00697   =>   CDf =  0.00567    CDp =  0.00130

 Side 1  free  transition at x/c =  0.0195    4
 Side 2  free  transition at x/c =  0.0290    5

  25   rms: 0.1193E+00   max: -.2350E+01   D at    5  2   RLX: 0.213
       a = -2.000      CL =  0.0081
      Cm = -0.0446     CD =  0.00694   =>   CDf =  0.00601    CDp =  0.00093

 Side 1  free  transition at x/c =  0.0195    4
 Side 2  free  transition at x/c =  0.0250    5

  26   rms: 0.9907E-01   max: -.1286E+01   D at    5  2   RLX: 0.389
       a = -2.000      CL =  0.0084
      Cm = -0.0461     CD =  0.00702   =>   CDf =  0.00607    CDp =  0.00095

 Side 1  free  transition at x/c =  0.0196    4
 Side 2  free  transition at x/c =  0.0211    4

  27   rms: 0.3345E-01   max: 0.5218E+00   D at    4  2
       a = -2.000      CL =  0.0089
      Cm = -0.0483     CD =  0.00710   =>   CDf =  0.00613    CDp =  0.00097

 Side 1  free  transition at x/c =  0.0196    4
 Side 2  free  transition at x/c =  0.0288    5

  28   rms: 0.1168E+00   max: -.2640E+01   D at    5  2   RLX: 0.189
       a = -2.000      CL =  0.0073
      Cm = -0.0487     CD =  0.00707   =>   CDf =  0.00619    CDp =  0.00088

 Side 1  free  transition at x/c =  0.0196    4
 Side 2  free  transition at x/c =  0.0250    5

  29   rms: 0.1043E+00   max: -.1484E+01   D at    5  2   RLX: 0.337
       a = -2.000      CL =  0.0079
      Cm = -0.0486     CD =  0.00710   =>   CDf =  0.00621    CDp =  0.00089

 Side 1  free  transition at x/c =  0.0196    4
 Side 2  free  transition at x/c =  0.0211    4

  30   rms: 0.2363E-01   max: 0.5219E+00   D at    4  2
       a = -2.000      CL =  0.0089
      Cm = -0.0483     CD =  0.00709   =>   CDf =  0.00621    CDp =  0.00088

 Side 1  free  transition at x/c =  0.0196    4
 Side 2  free  transition at x/c =  0.0287    5

  31   rms: 0.1172E+00   max: -.2642E+01   D at    5  2   RLX: 0.189
       a = -2.000      CL =  0.0073
      Cm = -0.0487     CD =  0.00707   =>   CDf =  0.00619    CDp =  0.00088

 Side 1  free  transition at x/c =  0.0196    4
 Side 2  free  transition at x/c =  0.0250    5

  32   rms: 0.1039E+00   max: -.1477E+01   D at    5  2   RLX: 0.339
       a = -2.000      CL =  0.0079
      Cm = -0.0486     CD =  0.00710   =>   CDf =  0.00621    CDp =  0.00089

 Side 1  free  transition at x/c =  0.0196    4
 Side 2  free  transition at x/c =  0.0211    4

  33   rms: 0.2354E-01   max: 0.5211E+00   D at    4  2
       a = -2.000      CL =  0.0089
      Cm = -0.0483     CD =  0.00709   =>   CDf =  0.00621    CDp =  0.00088

 Side 1  free  transition at x/c =  0.0196    4
 Side 2  free  transition at x/c =  0.0288    5

  34   rms: 0.1170E+00   max: -.2641E+01   D at    5  2   RLX: 0.189
       a = -2.000      CL =  0.0073
      Cm = -0.0487     CD =  0.00707   =>   CDf =  0.00619    CDp =  0.00088

 Side 1  free  transition at x/c =  0.0196    4
 Side 2  free  transition at x/c =  0.0250    5

  35   rms: 0.1041E+00   max: -.1480E+01   D at    5  2   RLX: 0.338
       a = -2.000      CL =  0.0079
      Cm = -0.0486     CD =  0.00710   =>   CDf =  0.00621    CDp =  0.00089

 Side 1  free  transition at x/c =  0.0196    4
 Side 2  free  transition at x/c =  0.0211    4

  36   rms: 0.2358E-01   max: 0.5215E+00   D at    4  2
       a = -2.000      CL =  0.0089
      Cm = -0.0483     CD =  0.00709   =>   CDf =  0.00621    CDp =  0.00088

 Side 1  free  transition at x/c =  0.0196    4
 Side 2  free  transition at x/c =  0.0287    5

  37   rms: 0.1171E+00   max: -.2641E+01   D at    5  2   RLX: 0.189
       a = -2.000      CL =  0.0073
      Cm = -0.0487     CD =  0.00707   =>   CDf =  0.00619    CDp =  0.00088

 Side 1  free  transition at x/c =  0.0196    4
 Side 2  free  transition at x/c =  0.0250    5

  38   rms: 0.1040E+00   max: -.1478E+01   D at    5  2   RLX: 0.338
       a = -2.000      CL =  0.0079
      Cm = -0.0486     CD =  0.00710   =>   CDf =  0.00621    CDp =  0.00089

 Side 1  free  transition at x/c =  0.0196    4
 Side 2  free  transition at x/c =  0.0211    4

  39   rms: 0.2356E-01   max: 0.5213E+00   D at    4  2
       a = -2.000      CL =  0.0089
      Cm = -0.0483     CD =  0.00709   =>   CDf =  0.00621    CDp =  0.00088

 Side 1  free  transition at x/c =  0.0196    4
 Side 2  free  transition at x/c =  0.0287    5

  40   rms: 0.1171E+00   max: -.2641E+01   D at    5  2   RLX: 0.189
       a = -2.000      CL =  0.0073
      Cm = -0.0487     CD =  0.00707   =>   CDf =  0.00619    CDp =  0.00088

 Side 1  free  transition at x/c =  0.0196    4
 Side 2  free  transition at x/c =  0.0250    5

  41   rms: 0.1040E+00   max: -.1479E+01   D at    5  2   RLX: 0.338
       a = -2.000      CL =  0.0079
      Cm = -0.0486     CD =  0.00710   =>   CDf =  0.00621    CDp =  0.00089

 Side 1  free  transition at x/c =  0.0196    4
 Side 2  free  transition at x/c =  0.0211    4

  42   rms: 0.2357E-01   max: 0.5214E+00   D at    4  2
       a = -2.000      CL =  0.0089
      Cm = -0.0483     CD =  0.00709   =>   CDf =  0.00621    CDp =  0.00088

 Side 1  free  transition at x/c =  0.0196    4
 Side 2  free  transition at x/c =  0.0287    5

  43   rms: 0.1171E+00   max: -.2641E+01   D at    5  2   RLX: 0.189
       a = -2.000      CL =  0.0073
      Cm = -0.0487     CD =  0.00707   =>   CDf =  0.00619    CDp =  0.00088

 Side 1  free  transition at x/c =  0.0196    4
 Side 2  free  transition at x/c =  0.0250    5

  44   rms: 0.1040E+00   max: -.1479E+01   D at    5  2   RLX: 0.338
       a = -2.000      CL =  0.0079
      Cm = -0.0486     CD =  0.00710   =>   CDf =  0.00621    CDp =  0.00089

 Side 1  free  transition at x/c =  0.0196    4
 Side 2  free  transition at x/c =  0.0211    4

  45   rms: 0.2357E-01   max: 0.5214E+00   D at    4  2
       a = -2.000      CL =  0.0089
      Cm = -0.0483     CD =  0.00709   =>   CDf =  0.00621    CDp =  0.00088

 Side 1  free  transition at x/c =  0.0196    4
 Side 2  free  transition at x/c =  0.0287    5

  46   rms: 0.1171E+00   max: -.2641E+01   D at    5  2   RLX: 0.189
       a = -2.000      CL =  0.0073
      Cm = -0.0487     CD =  0.00707   =>   CDf =  0.00619    CDp =  0.00088

 Side 1  free  transition at x/c =  0.0196    4
 Side 2  free  transition at x/c =  0.0250    5

  47   rms: 0.1040E+00   max: -.1479E+01   D at    5  2   RLX: 0.338
       a = -2.000      CL =  0.0079
      Cm = -0.0486     CD =  0.00710   =>   CDf =  0.00621    CDp =  0.00089

 Side 1  free  transition at x/c =  0.0196    4
 Side 2  free  transition at x/c =  0.0211    4

  48   rms: 0.2357E-01   max: 0.5214E+00   D at    4  2
       a = -2.000      CL =  0.0089
      Cm = -0.0483     CD =  0.00709   =>   CDf =  0.00621    CDp =  0.00088

 Side 1  free  transition at x/c =  0.0196    4
 Side 2  free  transition at x/c =  0.0287    5

  49   rms: 0.1171E+00   max: -.2641E+01   D at    5  2   RLX: 0.189
       a = -2.000      CL =  0.0073
      Cm = -0.0487     CD =  0.00707   =>   CDf =  0.00619    CDp =  0.00088

 Side 1  free  transition at x/c =  0.0196    4
 Side 2  free  transition at x/c =  0.0250    5

  50   rms: 0.1040E+00   max: -.1479E+01   D at    5  2   RLX: 0.338
       a = -2.000      CL =  0.0079
      Cm = -0.0486     CD =  0.00710   =>   CDf =  0.00621    CDp =  0.00089

 Side 1  free  transition at x/c =  0.0196    4
 Side 2  free  transition at x/c =  0.0211    4

  51   rms: 0.2357E-01   max: 0.5214E+00   D at    4  2
       a = -2.000      CL =  0.0089
      Cm = -0.0483     CD =  0.00709   =>   CDf =  0.00621    CDp =  0.00088

 Side 1  free  transition at x/c =  0.0196    4
 Side 2  free  transition at x/c =  0.0287    5

  52   rms: 0.1171E+00   max: -.2641E+01   D at    5  2   RLX: 0.189
       a = -2.000      CL =  0.0073
      Cm = -0.0487     CD =  0.00707   =>   CDf =  0.00619    CDp =  0.00088

 Side 1  free  transition at x/c =  0.0196    4
 Side 2  free  transition at x/c =  0.0250    5

  53   rms: 0.1040E+00   max: -.1479E+01   D at    5  2   RLX: 0.338
       a = -2.000      CL =  0.0079
      Cm = -0.0486     CD =  0.00710   =>   CDf =  0.00621    CDp =  0.00089

 Side 1  free  transition at x/c =  0.0196    4
 Side 2  free  transition at x/c =  0.0211    4

  54   rms: 0.2357E-01   max: 0.5214E+00   D at    4  2
       a = -2.000      CL =  0.0089
      Cm = -0.0483     CD =  0.00709   =>   CDf =  0.00621    CDp =  0.00088

 Side 1  free  transition at x/c =  0.0196    4
 Side 2  free  transition at x/c =  0.0287    5

  55   rms: 0.1171E+00   max: -.2641E+01   D at    5  2   RLX: 0.189
       a = -2.000      CL =  0.0073
      Cm = -0.0487     CD =  0.00707   =>   CDf =  0.00619    CDp =  0.00088

 Side 1  free  transition at x/c =  0.0196    4
 Side 2  free  transition at x/c =  0.0250    5

  56   rms: 0.1040E+00   max: -.1479E+01   D at    5  2   RLX: 0.338
       a = -2.000      CL =  0.0079
      Cm = -0.0486     CD =  0.00710   =>   CDf =  0.00621    CDp =  0.00089

 Side 1  free  transition at x/c =  0.0196    4
 Side 2  free  transition at x/c =  0.0211    4

  57   rms: 0.2357E-01   max: 0.5214E+00   D at    4  2
       a = -2.000      CL =  0.0089
      Cm = -0.0483     CD =  0.00709   =>   CDf =  0.00621    CDp =  0.00088

 Side 1  free  transition at x/c =  0.0196    4
 Side 2  free  transition at x/c =  0.0287    5

  58   rms: 0.1171E+00   max: -.2641E+01   D at    5  2   RLX: 0.189
       a = -2.000      CL =  0.0073
      Cm = -0.0487     CD =  0.00707   =>   CDf =  0.00619    CDp =  0.00088

 Side 1  free  transition at x/c =  0.0196    4
 Side 2  free  transition at x/c =  0.0250    5

  59   rms: 0.1040E+00   max: -.1479E+01   D at    5  2   RLX: 0.338
       a = -2.000      CL =  0.0079
      Cm = -0.0486     CD =  0.00710   =>   CDf =  0.00621    CDp =  0.00089

 Side 1  free  transition at x/c =  0.0196    4
 Side 2  free  transition at x/c =  0.0211    4

  60   rms: 0.2357E-01   max: 0.5214E+00   D at    4  2
       a = -2.000      CL =  0.0089
      Cm = -0.0483     CD =  0.00709   =>   CDf =  0.00621    CDp =  0.00088

 Side 1  free  transition at x/c =  0.0196    4
 Side 2  free  transition at x/c =  0.0287    5

  61   rms: 0.1171E+00   max: -.2641E+01   D at    5  2   RLX: 0.189
       a = -2.000      CL =  0.0073
      Cm = -0.0487     CD =  0.00707   =>   CDf =  0.00619    CDp =  0.00088

 Side 1  free  transition at x/c =  0.0196    4
 Side 2  free  transition at x/c =  0.0250    5

  62   rms: 0.1040E+00   max: -.1479E+01   D at    5  2   RLX: 0.338
       a = -2.000      CL =  0.0079
      Cm = -0.0486     CD =  0.00710   =>   CDf =  0.00621    CDp =  0.00089

 Side 1  free  transition at x/c =  0.0196    4
 Side 2  free  transition at x/c =  0.0211    4

  63   rms: 0.2357E-01   max: 0.5214E+00   D at    4  2
       a = -2.000      CL =  0.0089
      Cm = -0.0483     CD =  0.00709   =>   CDf =  0.00621    CDp =  0.00088

 Side 1  free  transition at x/c =  0.0196    4
 Side 2  free  transition at x/c =  0.0287    5

  64   rms: 0.1171E+00   max: -.2641E+01   D at    5  2   RLX: 0.189
       a = -2.000      CL =  0.0073
      Cm = -0.0487     CD =  0.00707   =>   CDf =  0.00619    CDp =  0.00088

 Side 1  free  transition at x/c =  0.0196    4
 Side 2  free  transition at x/c =  0.0250    5

  65   rms: 0.1040E+00   max: -.1479E+01   D at    5  2   RLX: 0.338
       a = -2.000      CL =  0.0079
      Cm = -0.0486     CD =  0.00710   =>   CDf =  0.00621    CDp =  0.00089

 Side 1  free  transition at x/c =  0.0196    4
 Side 2  free  transition at x/c =  0.0211    4

  66   rms: 0.2357E-01   max: 0.5214E+00   D at    4  2
       a = -2.000      CL =  0.0089
      Cm = -0.0483     CD =  0.00709   =>   CDf =  0.00621    CDp =  0.00088

 Side 1  free  transition at x/c =  0.0196    4
 Side 2  free  transition at x/c =  0.0287    5

  67   rms: 0.1171E+00   max: -.2641E+01   D at    5  2   RLX: 0.189
       a = -2.000      CL =  0.0073
      Cm = -0.0487     CD =  0.00707   =>   CDf =  0.00619    CDp =  0.00088

 Side 1  free  transition at x/c =  0.0196    4
 Side 2  free  transition at x/c =  0.0250    5

  68   rms: 0.1040E+00   max: -.1479E+01   D at    5  2   RLX: 0.338
       a = -2.000      CL =  0.0079
      Cm = -0.0486     CD =  0.00710   =>   CDf =  0.00621    CDp =  0.00089

 Side 1  free  transition at x/c =  0.0196    4
 Side 2  free  transition at x/c =  0.0211    4

  69   rms: 0.2357E-01   max: 0.5214E+00   D at    4  2
       a = -2.000      CL =  0.0089
      Cm = -0.0483     CD =  0.00709   =>   CDf =  0.00621    CDp =  0.00088

 Side 1  free  transition at x/c =  0.0196    4
 Side 2  free  transition at x/c =  0.0287    5

  70   rms: 0.1171E+00   max: -.2641E+01   D at    5  2   RLX: 0.189
       a = -2.000      CL =  0.0073
      Cm = -0.0487     CD =  0.00707   =>   CDf =  0.00619    CDp =  0.00088

 Side 1  free  transition at x/c =  0.0196    4
 Side 2  free  transition at x/c =  0.0250    5

  71   rms: 0.1040E+00   max: -.1479E+01   D at    5  2   RLX: 0.338
       a = -2.000      CL =  0.0079
      Cm = -0.0486     CD =  0.00710   =>   CDf =  0.00621    CDp =  0.00089

 Side 1  free  transition at x/c =  0.0196    4
 Side 2  free  transition at x/c =  0.0211    4

  72   rms: 0.2357E-01   max: 0.5214E+00   D at    4  2
       a = -2.000      CL =  0.0089
      Cm = -0.0483     CD =  0.00709   =>   CDf =  0.00621    CDp =  0.00088

 Side 1  free  transition at x/c =  0.0196    4
 Side 2  free  transition at x/c =  0.0287    5

  73   rms: 0.1171E+00   max: -.2641E+01   D at    5  2   RLX: 0.189
       a = -2.000      CL =  0.0073
      Cm = -0.0487     CD =  0.00707   =>   CDf =  0.00619    CDp =  0.00088

 Side 1  free  transition at x/c =  0.0196    4
 Side 2  free  transition at x/c =  0.0250    5

  74   rms: 0.1040E+00   max: -.1479E+01   D at    5  2   RLX: 0.338
       a = -2.000      CL =  0.0079
      Cm = -0.0486     CD =  0.00710   =>   CDf =  0.00621    CDp =  0.00089

 Side 1  free  transition at x/c =  0.0196    4
 Side 2  free  transition at x/c =  0.0211    4

  75   rms: 0.2357E-01   max: 0.5214E+00   D at    4  2
       a = -2.000      CL =  0.0089
      Cm = -0.0483     CD =  0.00709   =>   CDf =  0.00621    CDp =  0.00088

 Side 1  free  transition at x/c =  0.0196    4
 Side 2  free  transition at x/c =  0.0287    5

  76   rms: 0.1171E+00   max: -.2641E+01   D at    5  2   RLX: 0.189
       a = -2.000      CL =  0.0073
      Cm = -0.0487     CD =  0.00707   =>   CDf =  0.00619    CDp =  0.00088

 Side 1  free  transition at x/c =  0.0196    4
 Side 2  free  transition at x/c =  0.0250    5

  77   rms: 0.1040E+00   max: -.1479E+01   D at    5  2   RLX: 0.338
       a = -2.000      CL =  0.0079
      Cm = -0.0486     CD =  0.00710   =>   CDf =  0.00621    CDp =  0.00089

 Side 1  free  transition at x/c =  0.0196    4
 Side 2  free  transition at x/c =  0.0211    4

  78   rms: 0.2357E-01   max: 0.5214E+00   D at    4  2
       a = -2.000      CL =  0.0089
      Cm = -0.0483     CD =  0.00709   =>   CDf =  0.00621    CDp =  0.00088

 Side 1  free  transition at x/c =  0.0196    4
 Side 2  free  transition at x/c =  0.0287    5

  79   rms: 0.1171E+00   max: -.2641E+01   D at    5  2   RLX: 0.189
       a = -2.000      CL =  0.0073
      Cm = -0.0487     CD =  0.00707   =>   CDf =  0.00619    CDp =  0.00088

 Side 1  free  transition at x/c =  0.0196    4
 Side 2  free  transition at x/c =  0.0250    5

  80   rms: 0.1040E+00   max: -.1479E+01   D at    5  2   RLX: 0.338
       a = -2.000      CL =  0.0079
      Cm = -0.0486     CD =  0.00710   =>   CDf =  0.00621    CDp =  0.00089

 Side 1  free  transition at x/c =  0.0196    4
 Side 2  free  transition at x/c =  0.0211    4

  81   rms: 0.2357E-01   max: 0.5214E+00   D at    4  2
       a = -2.000      CL =  0.0089
      Cm = -0.0483     CD =  0.00709   =>   CDf =  0.00621    CDp =  0.00088

 Side 1  free  transition at x/c =  0.0196    4
 Side 2  free  transition at x/c =  0.0287    5

  82   rms: 0.1171E+00   max: -.2641E+01   D at    5  2   RLX: 0.189
       a = -2.000      CL =  0.0073
      Cm = -0.0487     CD =  0.00707   =>   CDf =  0.00619    CDp =  0.00088

 Side 1  free  transition at x/c =  0.0196    4
 Side 2  free  transition at x/c =  0.0250    5

  83   rms: 0.1040E+00   max: -.1479E+01   D at    5  2   RLX: 0.338
       a = -2.000      CL =  0.0079
      Cm = -0.0486     CD =  0.00710   =>   CDf =  0.00621    CDp =  0.00089

 Side 1  free  transition at x/c =  0.0196    4
 Side 2  free  transition at x/c =  0.0211    4

  84   rms: 0.2357E-01   max: 0.5214E+00   D at    4  2
       a = -2.000      CL =  0.0089
      Cm = -0.0483     CD =  0.00709   =>   CDf =  0.00621    CDp =  0.00088

 Side 1  free  transition at x/c =  0.0196    4
 Side 2  free  transition at x/c =  0.0287    5

  85   rms: 0.1171E+00   max: -.2641E+01   D at    5  2   RLX: 0.189
       a = -2.000      CL =  0.0073
      Cm = -0.0487     CD =  0.00707   =>   CDf =  0.00619    CDp =  0.00088

 Side 1  free  transition at x/c =  0.0196    4
 Side 2  free  transition at x/c =  0.0250    5

  86   rms: 0.1040E+00   max: -.1479E+01   D at    5  2   RLX: 0.338
       a = -2.000      CL =  0.0079
      Cm = -0.0486     CD =  0.00710   =>   CDf =  0.00621    CDp =  0.00089

 Side 1  free  transition at x/c =  0.0196    4
 Side 2  free  transition at x/c =  0.0211    4

  87   rms: 0.2357E-01   max: 0.5214E+00   D at    4  2
       a = -2.000      CL =  0.0089
      Cm = -0.0483     CD =  0.00709   =>   CDf =  0.00621    CDp =  0.00088

 Side 1  free  transition at x/c =  0.0196    4
 Side 2  free  transition at x/c =  0.0287    5

  88   rms: 0.1171E+00   max: -.2641E+01   D at    5  2   RLX: 0.189
       a = -2.000      CL =  0.0073
      Cm = -0.0487     CD =  0.00707   =>   CDf =  0.00619    CDp =  0.00088

 Side 1  free  transition at x/c =  0.0196    4
 Side 2  free  transition at x/c =  0.0250    5

  89   rms: 0.1040E+00   max: -.1479E+01   D at    5  2   RLX: 0.338
       a = -2.000      CL =  0.0079
      Cm = -0.0486     CD =  0.00710   =>   CDf =  0.00621    CDp =  0.00089

 Side 1  free  transition at x/c =  0.0196    4
 Side 2  free  transition at x/c =  0.0211    4

  90   rms: 0.2357E-01   max: 0.5214E+00   D at    4  2
       a = -2.000      CL =  0.0089
      Cm = -0.0483     CD =  0.00709   =>   CDf =  0.00621    CDp =  0.00088

 Side 1  free  transition at x/c =  0.0196    4
 Side 2  free  transition at x/c =  0.0287    5

  91   rms: 0.1171E+00   max: -.2641E+01   D at    5  2   RLX: 0.189
       a = -2.000      CL =  0.0073
      Cm = -0.0487     CD =  0.00707   =>   CDf =  0.00619    CDp =  0.00088

 Side 1  free  transition at x/c =  0.0196    4
 Side 2  free  transition at x/c =  0.0250    5

  92   rms: 0.1040E+00   max: -.1479E+01   D at    5  2   RLX: 0.338
       a = -2.000      CL =  0.0079
      Cm = -0.0486     CD =  0.00710   =>   CDf =  0.00621    CDp =  0.00089

 Side 1  free  transition at x/c =  0.0196    4
 Side 2  free  transition at x/c =  0.0211    4

  93   rms: 0.2357E-01   max: 0.5214E+00   D at    4  2
       a = -2.000      CL =  0.0089
      Cm = -0.0483     CD =  0.00709   =>   CDf =  0.00621    CDp =  0.00088

 Side 1  free  transition at x/c =  0.0196    4
 Side 2  free  transition at x/c =  0.0287    5

  94   rms: 0.1171E+00   max: -.2641E+01   D at    5  2   RLX: 0.189
       a = -2.000      CL =  0.0073
      Cm = -0.0487     CD =  0.00707   =>   CDf =  0.00619    CDp =  0.00088

 Side 1  free  transition at x/c =  0.0196    4
 Side 2  free  transition at x/c =  0.0250    5

  95   rms: 0.1040E+00   max: -.1479E+01   D at    5  2   RLX: 0.338
       a = -2.000      CL =  0.0079
      Cm = -0.0486     CD =  0.00710   =>   CDf =  0.00621    CDp =  0.00089

 Side 1  free  transition at x/c =  0.0196    4
 Side 2  free  transition at x/c =  0.0211    4

  96   rms: 0.2357E-01   max: 0.5214E+00   D at    4  2
       a = -2.000      CL =  0.0089
      Cm = -0.0483     CD =  0.00709   =>   CDf =  0.00621    CDp =  0.00088

 Side 1  free  transition at x/c =  0.0196    4
 Side 2  free  transition at x/c =  0.0287    5

  97   rms: 0.1171E+00   max: -.2641E+01   D at    5  2   RLX: 0.189
       a = -2.000      CL =  0.0073
      Cm = -0.0487     CD =  0.00707   =>   CDf =  0.00619    CDp =  0.00088

 Side 1  free  transition at x/c =  0.0196    4
 Side 2  free  transition at x/c =  0.0250    5

  98   rms: 0.1040E+00   max: -.1479E+01   D at    5  2   RLX: 0.338
       a = -2.000      CL =  0.0079
      Cm = -0.0486     CD =  0.00710   =>   CDf =  0.00621    CDp =  0.00089

 Side 1  free  transition at x/c =  0.0196    4
 Side 2  free  transition at x/c =  0.0211    4

  99   rms: 0.2357E-01   max: 0.5214E+00   D at    4  2
       a = -2.000      CL =  0.0089
      Cm = -0.0483     CD =  0.00709   =>   CDf =  0.00621    CDp =  0.00088

 Side 1  free  transition at x/c =  0.0196    4
 Side 2  free  transition at x/c =  0.0287    5

 100   rms: 0.1171E+00   max: -.2641E+01   D at    5  2   RLX: 0.189
       a = -2.000      CL =  0.0073
      Cm = -0.0487     CD =  0.00707   =>   CDf =  0.00619    CDp =  0.00088

 Side 1  free  transition at x/c =  0.0196    4
 Side 2  free  transition at x/c =  0.0250    5

 101   rms: 0.1040E+00   max: -.1479E+01   D at    5  2   RLX: 0.338
       a = -2.000      CL =  0.0079
      Cm = -0.0486     CD =  0.00710   =>   CDf =  0.00621    CDp =  0.00089

 Side 1  free  transition at x/c =  0.0196    4
 Side 2  free  transition at x/c =  0.0211    4

 102   rms: 0.2357E-01   max: 0.5214E+00   D at    4  2
       a = -2.000      CL =  0.0089
      Cm = -0.0483     CD =  0.00709   =>   CDf =  0.00621    CDp =  0.00088

 Side 1  free  transition at x/c =  0.0196    4
 Side 2  free  transition at x/c =  0.0287    5

 103   rms: 0.1171E+00   max: -.2641E+01   D at    5  2   RLX: 0.189
       a = -2.000      CL =  0.0073
      Cm = -0.0487     CD =  0.00707   =>   CDf =  0.00619    CDp =  0.00088

 Side 1  free  transition at x/c =  0.0196    4
 Side 2  free  transition at x/c =  0.0250    5

 104   rms: 0.1040E+00   max: -.1479E+01   D at    5  2   RLX: 0.338
       a = -2.000      CL =  0.0079
      Cm = -0.0486     CD =  0.00710   =>   CDf =  0.00621    CDp =  0.00089

 Side 1  free  transition at x/c =  0.0196    4
 Side 2  free  transition at x/c =  0.0211    4

 105   rms: 0.2357E-01   max: 0.5214E+00   D at    4  2
       a = -2.000      CL =  0.0089
      Cm = -0.0483     CD =  0.00709   =>   CDf =  0.00621    CDp =  0.00088

 Side 1  free  transition at x/c =  0.0196    4
 Side 2  free  transition at x/c =  0.0287    5

 106   rms: 0.1171E+00   max: -.2641E+01   D at    5  2   RLX: 0.189
       a = -2.000      CL =  0.0073
      Cm = -0.0487     CD =  0.00707   =>   CDf =  0.00619    CDp =  0.00088

 Side 1  free  transition at x/c =  0.0196    4
 Side 2  free  transition at x/c =  0.0250    5

 107   rms: 0.1040E+00   max: -.1479E+01   D at    5  2   RLX: 0.338
       a = -2.000      CL =  0.0079
      Cm = -0.0486     CD =  0.00710   =>   CDf =  0.00621    CDp =  0.00089

 Side 1  free  transition at x/c =  0.0196    4
 Side 2  free  transition at x/c =  0.0211    4

 108   rms: 0.2357E-01   max: 0.5214E+00   D at    4  2
       a = -2.000      CL =  0.0089
      Cm = -0.0483     CD =  0.00709   =>   CDf =  0.00621    CDp =  0.00088

 Side 1  free  transition at x/c =  0.0196    4
 Side 2  free  transition at x/c =  0.0287    5

 109   rms: 0.1171E+00   max: -.2641E+01   D at    5  2   RLX: 0.189
       a = -2.000      CL =  0.0073
      Cm = -0.0487     CD =  0.00707   =>   CDf =  0.00619    CDp =  0.00088

 Side 1  free  transition at x/c =  0.0196    4
 Side 2  free  transition at x/c =  0.0250    5

 110   rms: 0.1040E+00   max: -.1479E+01   D at    5  2   RLX: 0.338
       a = -2.000      CL =  0.0079
      Cm = -0.0486     CD =  0.00710   =>   CDf =  0.00621    CDp =  0.00089

 Side 1  free  transition at x/c =  0.0196    4
 Side 2  free  transition at x/c =  0.0211    4

 111   rms: 0.2357E-01   max: 0.5214E+00   D at    4  2
       a = -2.000      CL =  0.0089
      Cm = -0.0483     CD =  0.00709   =>   CDf =  0.00621    CDp =  0.00088

 Side 1  free  transition at x/c =  0.0196    4
 Side 2  free  transition at x/c =  0.0287    5

 112   rms: 0.1171E+00   max: -.2641E+01   D at    5  2   RLX: 0.189
       a = -2.000      CL =  0.0073
      Cm = -0.0487     CD =  0.00707   =>   CDf =  0.00619    CDp =  0.00088

 Side 1  free  transition at x/c =  0.0196    4
 Side 2  free  transition at x/c =  0.0250    5

 113   rms: 0.1040E+00   max: -.1479E+01   D at    5  2   RLX: 0.338
       a = -2.000      CL =  0.0079
      Cm = -0.0486     CD =  0.00710   =>   CDf =  0.00621    CDp =  0.00089

 Side 1  free  transition at x/c =  0.0196    4
 Side 2  free  transition at x/c =  0.0211    4

 114   rms: 0.2357E-01   max: 0.5214E+00   D at    4  2
       a = -2.000      CL =  0.0089
      Cm = -0.0483     CD =  0.00709   =>   CDf =  0.00621    CDp =  0.00088

 Side 1  free  transition at x/c =  0.0196    4
 Side 2  free  transition at x/c =  0.0287    5

 115   rms: 0.1171E+00   max: -.2641E+01   D at    5  2   RLX: 0.189
       a = -2.000      CL =  0.0073
      Cm = -0.0487     CD =  0.00707   =>   CDf =  0.00619    CDp =  0.00088

 Side 1  free  transition at x/c =  0.0196    4
 Side 2  free  transition at x/c =  0.0250    5

 116   rms: 0.1040E+00   max: -.1479E+01   D at    5  2   RLX: 0.338
       a = -2.000      CL =  0.0079
      Cm = -0.0486     CD =  0.00710   =>   CDf =  0.00621    CDp =  0.00089

 Side 1  free  transition at x/c =  0.0196    4
 Side 2  free  transition at x/c =  0.0211    4

 117   rms: 0.2357E-01   max: 0.5214E+00   D at    4  2
       a = -2.000      CL =  0.0089
      Cm = -0.0483     CD =  0.00709   =>   CDf =  0.00621    CDp =  0.00088

 Side 1  free  transition at x/c =  0.0196    4
 Side 2  free  transition at x/c =  0.0287    5

 118   rms: 0.1171E+00   max: -.2641E+01   D at    5  2   RLX: 0.189
       a = -2.000      CL =  0.0073
      Cm = -0.0487     CD =  0.00707   =>   CDf =  0.00619    CDp =  0.00088

 Side 1  free  transition at x/c =  0.0196    4
 Side 2  free  transition at x/c =  0.0250    5

 119   rms: 0.1040E+00   max: -.1479E+01   D at    5  2   RLX: 0.338
       a = -2.000      CL =  0.0079
      Cm = -0.0486     CD =  0.00710   =>   CDf =  0.00621    CDp =  0.00089

 Side 1  free  transition at x/c =  0.0196    4
 Side 2  free  transition at x/c =  0.0211    4

 120   rms: 0.2357E-01   max: 0.5214E+00   D at    4  2
       a = -2.000      CL =  0.0089
      Cm = -0.0483     CD =  0.00709   =>   CDf =  0.00621    CDp =  0.00088

 Side 1  free  transition at x/c =  0.0196    4
 Side 2  free  transition at x/c =  0.0287    5

 121   rms: 0.1171E+00   max: -.2641E+01   D at    5  2   RLX: 0.189
       a = -2.000      CL =  0.0073
      Cm = -0.0487     CD =  0.00707   =>   CDf =  0.00619    CDp =  0.00088

 Side 1  free  transition at x/c =  0.0196    4
 Side 2  free  transition at x/c =  0.0250    5

 122   rms: 0.1040E+00   max: -.1479E+01   D at    5  2   RLX: 0.338
       a = -2.000      CL =  0.0079
      Cm = -0.0486     CD =  0.00710   =>   CDf =  0.00621    CDp =  0.00089

 Side 1  free  transition at x/c =  0.0196    4
 Side 2  free  transition at x/c =  0.0211    4

 123   rms: 0.2357E-01   max: 0.5214E+00   D at    4  2
       a = -2.000      CL =  0.0089
      Cm = -0.0483     CD =  0.00709   =>   CDf =  0.00621    CDp =  0.00088

 Side 1  free  transition at x/c =  0.0196    4
 Side 2  free  transition at x/c =  0.0287    5

 124   rms: 0.1171E+00   max: -.2641E+01   D at    5  2   RLX: 0.189
       a = -2.000      CL =  0.0073
      Cm = -0.0487     CD =  0.00707   =>   CDf =  0.00619    CDp =  0.00088

 Side 1  free  transition at x/c =  0.0196    4
 Side 2  free  transition at x/c =  0.0250    5

 125   rms: 0.1040E+00   max: -.1479E+01   D at    5  2   RLX: 0.338
       a = -2.000      CL =  0.0079
      Cm = -0.0486     CD =  0.00710   =>   CDf =  0.00621    CDp =  0.00089

 Side 1  free  transition at x/c =  0.0196    4
 Side 2  free  transition at x/c =  0.0211    4

 126   rms: 0.2357E-01   max: 0.5214E+00   D at    4  2
       a = -2.000      CL =  0.0089
      Cm = -0.0483     CD =  0.00709   =>   CDf =  0.00621    CDp =  0.00088

 Side 1  free  transition at x/c =  0.0196    4
 Side 2  free  transition at x/c =  0.0287    5

 127   rms: 0.1171E+00   max: -.2641E+01   D at    5  2   RLX: 0.189
       a = -2.000      CL =  0.0073
      Cm = -0.0487     CD =  0.00707   =>   CDf =  0.00619    CDp =  0.00088

 Side 1  free  transition at x/c =  0.0196    4
 Side 2  free  transition at x/c =  0.0250    5

 128   rms: 0.1040E+00   max: -.1479E+01   D at    5  2   RLX: 0.338
       a = -2.000      CL =  0.0079
      Cm = -0.0486     CD =  0.00710   =>   CDf =  0.00621    CDp =  0.00089

 Side 1  free  transition at x/c =  0.0196    4
 Side 2  free  transition at x/c =  0.0211    4

 129   rms: 0.2357E-01   max: 0.5214E+00   D at    4  2
       a = -2.000      CL =  0.0089
      Cm = -0.0483     CD =  0.00709   =>   CDf =  0.00621    CDp =  0.00088

 Side 1  free  transition at x/c =  0.0196    4
 Side 2  free  transition at x/c =  0.0287    5

 130   rms: 0.1171E+00   max: -.2641E+01   D at    5  2   RLX: 0.189
       a = -2.000      CL =  0.0073
      Cm = -0.0487     CD =  0.00707   =>   CDf =  0.00619    CDp =  0.00088

 Side 1  free  transition at x/c =  0.0196    4
 Side 2  free  transition at x/c =  0.0250    5

 131   rms: 0.1040E+00   max: -.1479E+01   D at    5  2   RLX: 0.338
       a = -2.000      CL =  0.0079
      Cm = -0.0486     CD =  0.00710   =>   CDf =  0.00621    CDp =  0.00089

 Side 1  free  transition at x/c =  0.0196    4
 Side 2  free  transition at x/c =  0.0211    4

 132   rms: 0.2357E-01   max: 0.5214E+00   D at    4  2
       a = -2.000      CL =  0.0089
      Cm = -0.0483     CD =  0.00709   =>   CDf =  0.00621    CDp =  0.00088

 Side 1  free  transition at x/c =  0.0196    4
 Side 2  free  transition at x/c =  0.0287    5

 133   rms: 0.1171E+00   max: -.2641E+01   D at    5  2   RLX: 0.189
       a = -2.000      CL =  0.0073
      Cm = -0.0487     CD =  0.00707   =>   CDf =  0.00619    CDp =  0.00088

 Side 1  free  transition at x/c =  0.0196    4
 Side 2  free  transition at x/c =  0.0250    5

 134   rms: 0.1040E+00   max: -.1479E+01   D at    5  2   RLX: 0.338
       a = -2.000      CL =  0.0079
      Cm = -0.0486     CD =  0.00710   =>   CDf =  0.00621    CDp =  0.00089

 Side 1  free  transition at x/c =  0.0196    4
 Side 2  free  transition at x/c =  0.0211    4

 135   rms: 0.2357E-01   max: 0.5214E+00   D at    4  2
       a = -2.000      CL =  0.0089
      Cm = -0.0483     CD =  0.00709   =>   CDf =  0.00621    CDp =  0.00088

 Side 1  free  transition at x/c =  0.0196    4
 Side 2  free  transition at x/c =  0.0287    5

 136   rms: 0.1171E+00   max: -.2641E+01   D at    5  2   RLX: 0.189
       a = -2.000      CL =  0.0073
      Cm = -0.0487     CD =  0.00707   =>   CDf =  0.00619    CDp =  0.00088

 Side 1  free  transition at x/c =  0.0196    4
 Side 2  free  transition at x/c =  0.0250    5

 137   rms: 0.1040E+00   max: -.1479E+01   D at    5  2   RLX: 0.338
       a = -2.000      CL =  0.0079
      Cm = -0.0486     CD =  0.00710   =>   CDf =  0.00621    CDp =  0.00089

 Side 1  free  transition at x/c =  0.0196    4
 Side 2  free  transition at x/c =  0.0211    4

 138   rms: 0.2357E-01   max: 0.5214E+00   D at    4  2
       a = -2.000      CL =  0.0089
      Cm = -0.0483     CD =  0.00709   =>   CDf =  0.00621    CDp =  0.00088

 Side 1  free  transition at x/c =  0.0196    4
 Side 2  free  transition at x/c =  0.0287    5

 139   rms: 0.1171E+00   max: -.2641E+01   D at    5  2   RLX: 0.189
       a = -2.000      CL =  0.0073
      Cm = -0.0487     CD =  0.00707   =>   CDf =  0.00619    CDp =  0.00088

 Side 1  free  transition at x/c =  0.0196    4
 Side 2  free  transition at x/c =  0.0250    5

 140   rms: 0.1040E+00   max: -.1479E+01   D at    5  2   RLX: 0.338
       a = -2.000      CL =  0.0079
      Cm = -0.0486     CD =  0.00710   =>   CDf =  0.00621    CDp =  0.00089

 Side 1  free  transition at x/c =  0.0196    4
 Side 2  free  transition at x/c =  0.0211    4

 141   rms: 0.2357E-01   max: 0.5214E+00   D at    4  2
       a = -2.000      CL =  0.0089
      Cm = -0.0483     CD =  0.00709   =>   CDf =  0.00621    CDp =  0.00088

 Side 1  free  transition at x/c =  0.0196    4
 Side 2  free  transition at x/c =  0.0287    5

 142   rms: 0.1171E+00   max: -.2641E+01   D at    5  2   RLX: 0.189
       a = -2.000      CL =  0.0073
      Cm = -0.0487     CD =  0.00707   =>   CDf =  0.00619    CDp =  0.00088

 Side 1  free  transition at x/c =  0.0196    4
 Side 2  free  transition at x/c =  0.0250    5

 143   rms: 0.1040E+00   max: -.1479E+01   D at    5  2   RLX: 0.338
       a = -2.000      CL =  0.0079
      Cm = -0.0486     CD =  0.00710   =>   CDf =  0.00621    CDp =  0.00089

 Side 1  free  transition at x/c =  0.0196    4
 Side 2  free  transition at x/c =  0.0211    4

 144   rms: 0.2357E-01   max: 0.5214E+00   D at    4  2
       a = -2.000      CL =  0.0089
      Cm = -0.0483     CD =  0.00709   =>   CDf =  0.00621    CDp =  0.00088

 Side 1  free  transition at x/c =  0.0196    4
 Side 2  free  transition at x/c =  0.0287    5

 145   rms: 0.1171E+00   max: -.2641E+01   D at    5  2   RLX: 0.189
       a = -2.000      CL =  0.0073
      Cm = -0.0487     CD =  0.00707   =>   CDf =  0.00619    CDp =  0.00088

 Side 1  free  transition at x/c =  0.0196    4
 Side 2  free  transition at x/c =  0.0250    5

 146   rms: 0.1040E+00   max: -.1479E+01   D at    5  2   RLX: 0.338
       a = -2.000      CL =  0.0079
      Cm = -0.0486     CD =  0.00710   =>   CDf =  0.00621    CDp =  0.00089

 Side 1  free  transition at x/c =  0.0196    4
 Side 2  free  transition at x/c =  0.0211    4

 147   rms: 0.2357E-01   max: 0.5214E+00   D at    4  2
       a = -2.000      CL =  0.0089
      Cm = -0.0483     CD =  0.00709   =>   CDf =  0.00621    CDp =  0.00088

 Side 1  free  transition at x/c =  0.0196    4
 Side 2  free  transition at x/c =  0.0287    5

 148   rms: 0.1171E+00   max: -.2641E+01   D at    5  2   RLX: 0.189
       a = -2.000      CL =  0.0073
      Cm = -0.0487     CD =  0.00707   =>   CDf =  0.00619    CDp =  0.00088

 Side 1  free  transition at x/c =  0.0196    4
 Side 2  free  transition at x/c =  0.0250    5

 149   rms: 0.1040E+00   max: -.1479E+01   D at    5  2   RLX: 0.338
       a = -2.000      CL =  0.0079
      Cm = -0.0486     CD =  0.00710   =>   CDf =  0.00621    CDp =  0.00089

 Side 1  free  transition at x/c =  0.0196    4
 Side 2  free  transition at x/c =  0.0211    4

 150   rms: 0.2357E-01   max: 0.5214E+00   D at    4  2
       a = -2.000      CL =  0.0089
      Cm = -0.0483     CD =  0.00709   =>   CDf =  0.00621    CDp =  0.00088

 Side 1  free  transition at x/c =  0.0196    4
 Side 2  free  transition at x/c =  0.0287    5

 151   rms: 0.1171E+00   max: -.2641E+01   D at    5  2   RLX: 0.189
       a = -2.000      CL =  0.0073
      Cm = -0.0487     CD =  0.00707   =>   CDf =  0.00619    CDp =  0.00088

 Side 1  free  transition at x/c =  0.0196    4
 Side 2  free  transition at x/c =  0.0250    5

 152   rms: 0.1040E+00   max: -.1479E+01   D at    5  2   RLX: 0.338
       a = -2.000      CL =  0.0079
      Cm = -0.0486     CD =  0.00710   =>   CDf =  0.00621    CDp =  0.00089

 Side 1  free  transition at x/c =  0.0196    4
 Side 2  free  transition at x/c =  0.0211    4

 153   rms: 0.2357E-01   max: 0.5214E+00   D at    4  2
       a = -2.000      CL =  0.0089
      Cm = -0.0483     CD =  0.00709   =>   CDf =  0.00621    CDp =  0.00088

 Side 1  free  transition at x/c =  0.0196    4
 Side 2  free  transition at x/c =  0.0287    5

 154   rms: 0.1171E+00   max: -.2641E+01   D at    5  2   RLX: 0.189
       a = -2.000      CL =  0.0073
      Cm = -0.0487     CD =  0.00707   =>   CDf =  0.00619    CDp =  0.00088

 Side 1  free  transition at x/c =  0.0196    4
 Side 2  free  transition at x/c =  0.0250    5

 155   rms: 0.1040E+00   max: -.1479E+01   D at    5  2   RLX: 0.338
       a = -2.000      CL =  0.0079
      Cm = -0.0486     CD =  0.00710   =>   CDf =  0.00621    CDp =  0.00089

 Side 1  free  transition at x/c =  0.0196    4
 Side 2  free  transition at x/c =  0.0211    4

 156   rms: 0.2357E-01   max: 0.5214E+00   D at    4  2
       a = -2.000      CL =  0.0089
      Cm = -0.0483     CD =  0.00709   =>   CDf =  0.00621    CDp =  0.00088

 Side 1  free  transition at x/c =  0.0196    4
 Side 2  free  transition at x/c =  0.0287    5

 157   rms: 0.1171E+00   max: -.2641E+01   D at    5  2   RLX: 0.189
       a = -2.000      CL =  0.0073
      Cm = -0.0487     CD =  0.00707   =>   CDf =  0.00619    CDp =  0.00088

 Side 1  free  transition at x/c =  0.0196    4
 Side 2  free  transition at x/c =  0.0250    5

 158   rms: 0.1040E+00   max: -.1479E+01   D at    5  2   RLX: 0.338
       a = -2.000      CL =  0.0079
      Cm = -0.0486     CD =  0.00710   =>   CDf =  0.00621    CDp =  0.00089

 Side 1  free  transition at x/c =  0.0196    4
 Side 2  free  transition at x/c =  0.0211    4

 159   rms: 0.2357E-01   max: 0.5214E+00   D at    4  2
       a = -2.000      CL =  0.0089
      Cm = -0.0483     CD =  0.00709   =>   CDf =  0.00621    CDp =  0.00088

 Side 1  free  transition at x/c =  0.0196    4
 Side 2  free  transition at x/c =  0.0287    5

 160   rms: 0.1171E+00   max: -.2641E+01   D at    5  2   RLX: 0.189
       a = -2.000      CL =  0.0073
      Cm = -0.0487     CD =  0.00707   =>   CDf =  0.00619    CDp =  0.00088

 Side 1  free  transition at x/c =  0.0196    4
 Side 2  free  transition at x/c =  0.0250    5

 161   rms: 0.1040E+00   max: -.1479E+01   D at    5  2   RLX: 0.338
       a = -2.000      CL =  0.0079
      Cm = -0.0486     CD =  0.00710   =>   CDf =  0.00621    CDp =  0.00089

 Side 1  free  transition at x/c =  0.0196    4
 Side 2  free  transition at x/c =  0.0211    4

 162   rms: 0.2357E-01   max: 0.5214E+00   D at    4  2
       a = -2.000      CL =  0.0089
      Cm = -0.0483     CD =  0.00709   =>   CDf =  0.00621    CDp =  0.00088

 Side 1  free  transition at x/c =  0.0196    4
 Side 2  free  transition at x/c =  0.0287    5

 163   rms: 0.1171E+00   max: -.2641E+01   D at    5  2   RLX: 0.189
       a = -2.000      CL =  0.0073
      Cm = -0.0487     CD =  0.00707   =>   CDf =  0.00619    CDp =  0.00088

 Side 1  free  transition at x/c =  0.0196    4
 Side 2  free  transition at x/c =  0.0250    5

 164   rms: 0.1040E+00   max: -.1479E+01   D at    5  2   RLX: 0.338
       a = -2.000      CL =  0.0079
      Cm = -0.0486     CD =  0.00710   =>   CDf =  0.00621    CDp =  0.00089

 Side 1  free  transition at x/c =  0.0196    4
 Side 2  free  transition at x/c =  0.0211    4

 165   rms: 0.2357E-01   max: 0.5214E+00   D at    4  2
       a = -2.000      CL =  0.0089
      Cm = -0.0483     CD =  0.00709   =>   CDf =  0.00621    CDp =  0.00088

 Side 1  free  transition at x/c =  0.0196    4
 Side 2  free  transition at x/c =  0.0287    5

 166   rms: 0.1171E+00   max: -.2641E+01   D at    5  2   RLX: 0.189
       a = -2.000      CL =  0.0073
      Cm = -0.0487     CD =  0.00707   =>   CDf =  0.00619    CDp =  0.00088

 Side 1  free  transition at x/c =  0.0196    4
 Side 2  free  transition at x/c =  0.0250    5

 167   rms: 0.1040E+00   max: -.1479E+01   D at    5  2   RLX: 0.338
       a = -2.000      CL =  0.0079
      Cm = -0.0486     CD =  0.00710   =>   CDf =  0.00621    CDp =  0.00089

 Side 1  free  transition at x/c =  0.0196    4
 Side 2  free  transition at x/c =  0.0211    4

 168   rms: 0.2357E-01   max: 0.5214E+00   D at    4  2
       a = -2.000      CL =  0.0089
      Cm = -0.0483     CD =  0.00709   =>   CDf =  0.00621    CDp =  0.00088

 Side 1  free  transition at x/c =  0.0196    4
 Side 2  free  transition at x/c =  0.0287    5

 169   rms: 0.1171E+00   max: -.2641E+01   D at    5  2   RLX: 0.189
       a = -2.000      CL =  0.0073
      Cm = -0.0487     CD =  0.00707   =>   CDf =  0.00619    CDp =  0.00088

 Side 1  free  transition at x/c =  0.0196    4
 Side 2  free  transition at x/c =  0.0250    5

 170   rms: 0.1040E+00   max: -.1479E+01   D at    5  2   RLX: 0.338
       a = -2.000      CL =  0.0079
      Cm = -0.0486     CD =  0.00710   =>   CDf =  0.00621    CDp =  0.00089

 Side 1  free  transition at x/c =  0.0196    4
 Side 2  free  transition at x/c =  0.0211    4

 171   rms: 0.2357E-01   max: 0.5214E+00   D at    4  2
       a = -2.000      CL =  0.0089
      Cm = -0.0483     CD =  0.00709   =>   CDf =  0.00621    CDp =  0.00088

 Side 1  free  transition at x/c =  0.0196    4
 Side 2  free  transition at x/c =  0.0287    5

 172   rms: 0.1171E+00   max: -.2641E+01   D at    5  2   RLX: 0.189
       a = -2.000      CL =  0.0073
      Cm = -0.0487     CD =  0.00707   =>   CDf =  0.00619    CDp =  0.00088

 Side 1  free  transition at x/c =  0.0196    4
 Side 2  free  transition at x/c =  0.0250    5

 173   rms: 0.1040E+00   max: -.1479E+01   D at    5  2   RLX: 0.338
       a = -2.000      CL =  0.0079
      Cm = -0.0486     CD =  0.00710   =>   CDf =  0.00621    CDp =  0.00089

 Side 1  free  transition at x/c =  0.0196    4
 Side 2  free  transition at x/c =  0.0211    4

 174   rms: 0.2357E-01   max: 0.5214E+00   D at    4  2
       a = -2.000      CL =  0.0089
      Cm = -0.0483     CD =  0.00709   =>   CDf =  0.00621    CDp =  0.00088

 Side 1  free  transition at x/c =  0.0196    4
 Side 2  free  transition at x/c =  0.0287    5

 175   rms: 0.1171E+00   max: -.2641E+01   D at    5  2   RLX: 0.189
       a = -2.000      CL =  0.0073
      Cm = -0.0487     CD =  0.00707   =>   CDf =  0.00619    CDp =  0.00088

 Side 1  free  transition at x/c =  0.0196    4
 Side 2  free  transition at x/c =  0.0250    5

 176   rms: 0.1040E+00   max: -.1479E+01   D at    5  2   RLX: 0.338
       a = -2.000      CL =  0.0079
      Cm = -0.0486     CD =  0.00710   =>   CDf =  0.00621    CDp =  0.00089

 Side 1  free  transition at x/c =  0.0196    4
 Side 2  free  transition at x/c =  0.0211    4

 177   rms: 0.2357E-01   max: 0.5214E+00   D at    4  2
       a = -2.000      CL =  0.0089
      Cm = -0.0483     CD =  0.00709   =>   CDf =  0.00621    CDp =  0.00088

 Side 1  free  transition at x/c =  0.0196    4
 Side 2  free  transition at x/c =  0.0287    5

 178   rms: 0.1171E+00   max: -.2641E+01   D at    5  2   RLX: 0.189
       a = -2.000      CL =  0.0073
      Cm = -0.0487     CD =  0.00707   =>   CDf =  0.00619    CDp =  0.00088

 Side 1  free  transition at x/c =  0.0196    4
 Side 2  free  transition at x/c =  0.0250    5

 179   rms: 0.1040E+00   max: -.1479E+01   D at    5  2   RLX: 0.338
       a = -2.000      CL =  0.0079
      Cm = -0.0486     CD =  0.00710   =>   CDf =  0.00621    CDp =  0.00089

 Side 1  free  transition at x/c =  0.0196    4
 Side 2  free  transition at x/c =  0.0211    4

 180   rms: 0.2357E-01   max: 0.5214E+00   D at    4  2
       a = -2.000      CL =  0.0089
      Cm = -0.0483     CD =  0.00709   =>   CDf =  0.00621    CDp =  0.00088

 Side 1  free  transition at x/c =  0.0196    4
 Side 2  free  transition at x/c =  0.0287    5

 181   rms: 0.1171E+00   max: -.2641E+01   D at    5  2   RLX: 0.189
       a = -2.000      CL =  0.0073
      Cm = -0.0487     CD =  0.00707   =>   CDf =  0.00619    CDp =  0.00088

 Side 1  free  transition at x/c =  0.0196    4
 Side 2  free  transition at x/c =  0.0250    5

 182   rms: 0.1040E+00   max: -.1479E+01   D at    5  2   RLX: 0.338
       a = -2.000      CL =  0.0079
      Cm = -0.0486     CD =  0.00710   =>   CDf =  0.00621    CDp =  0.00089

 Side 1  free  transition at x/c =  0.0196    4
 Side 2  free  transition at x/c =  0.0211    4

 183   rms: 0.2357E-01   max: 0.5214E+00   D at    4  2
       a = -2.000      CL =  0.0089
      Cm = -0.0483     CD =  0.00709   =>   CDf =  0.00621    CDp =  0.00088

 Side 1  free  transition at x/c =  0.0196    4
 Side 2  free  transition at x/c =  0.0287    5

 184   rms: 0.1171E+00   max: -.2641E+01   D at    5  2   RLX: 0.189
       a = -2.000      CL =  0.0073
      Cm = -0.0487     CD =  0.00707   =>   CDf =  0.00619    CDp =  0.00088

 Side 1  free  transition at x/c =  0.0196    4
 Side 2  free  transition at x/c =  0.0250    5

 185   rms: 0.1040E+00   max: -.1479E+01   D at    5  2   RLX: 0.338
       a = -2.000      CL =  0.0079
      Cm = -0.0486     CD =  0.00710   =>   CDf =  0.00621    CDp =  0.00089

 Side 1  free  transition at x/c =  0.0196    4
 Side 2  free  transition at x/c =  0.0211    4

 186   rms: 0.2357E-01   max: 0.5214E+00   D at    4  2
       a = -2.000      CL =  0.0089
      Cm = -0.0483     CD =  0.00709   =>   CDf =  0.00621    CDp =  0.00088

 Side 1  free  transition at x/c =  0.0196    4
 Side 2  free  transition at x/c =  0.0287    5

 187   rms: 0.1171E+00   max: -.2641E+01   D at    5  2   RLX: 0.189
       a = -2.000      CL =  0.0073
      Cm = -0.0487     CD =  0.00707   =>   CDf =  0.00619    CDp =  0.00088

 Side 1  free  transition at x/c =  0.0196    4
 Side 2  free  transition at x/c =  0.0250    5

 188   rms: 0.1040E+00   max: -.1479E+01   D at    5  2   RLX: 0.338
       a = -2.000      CL =  0.0079
      Cm = -0.0486     CD =  0.00710   =>   CDf =  0.00621    CDp =  0.00089

 Side 1  free  transition at x/c =  0.0196    4
 Side 2  free  transition at x/c =  0.0211    4

 189   rms: 0.2357E-01   max: 0.5214E+00   D at    4  2
       a = -2.000      CL =  0.0089
      Cm = -0.0483     CD =  0.00709   =>   CDf =  0.00621    CDp =  0.00088

 Side 1  free  transition at x/c =  0.0196    4
 Side 2  free  transition at x/c =  0.0287    5

 190   rms: 0.1171E+00   max: -.2641E+01   D at    5  2   RLX: 0.189
       a = -2.000      CL =  0.0073
      Cm = -0.0487     CD =  0.00707   =>   CDf =  0.00619    CDp =  0.00088

 Side 1  free  transition at x/c =  0.0196    4
 Side 2  free  transition at x/c =  0.0250    5

 191   rms: 0.1040E+00   max: -.1479E+01   D at    5  2   RLX: 0.338
       a = -2.000      CL =  0.0079
      Cm = -0.0486     CD =  0.00710   =>   CDf =  0.00621    CDp =  0.00089

 Side 1  free  transition at x/c =  0.0196    4
 Side 2  free  transition at x/c =  0.0211    4

 192   rms: 0.2357E-01   max: 0.5214E+00   D at    4  2
       a = -2.000      CL =  0.0089
      Cm = -0.0483     CD =  0.00709   =>   CDf =  0.00621    CDp =  0.00088

 Side 1  free  transition at x/c =  0.0196    4
 Side 2  free  transition at x/c =  0.0287    5

 193   rms: 0.1171E+00   max: -.2641E+01   D at    5  2   RLX: 0.189
       a = -2.000      CL =  0.0073
      Cm = -0.0487     CD =  0.00707   =>   CDf =  0.00619    CDp =  0.00088

 Side 1  free  transition at x/c =  0.0196    4
 Side 2  free  transition at x/c =  0.0250    5

 194   rms: 0.1040E+00   max: -.1479E+01   D at    5  2   RLX: 0.338
       a = -2.000      CL =  0.0079
      Cm = -0.0486     CD =  0.00710   =>   CDf =  0.00621    CDp =  0.00089

 Side 1  free  transition at x/c =  0.0196    4
 Side 2  free  transition at x/c =  0.0211    4

 195   rms: 0.2357E-01   max: 0.5214E+00   D at    4  2
       a = -2.000      CL =  0.0089
      Cm = -0.0483     CD =  0.00709   =>   CDf =  0.00621    CDp =  0.00088

 Side 1  free  transition at x/c =  0.0196    4
 Side 2  free  transition at x/c =  0.0287    5

 196   rms: 0.1171E+00   max: -.2641E+01   D at    5  2   RLX: 0.189
       a = -2.000      CL =  0.0073
      Cm = -0.0487     CD =  0.00707   =>   CDf =  0.00619    CDp =  0.00088

 Side 1  free  transition at x/c =  0.0196    4
 Side 2  free  transition at x/c =  0.0250    5

 197   rms: 0.1040E+00   max: -.1479E+01   D at    5  2   RLX: 0.338
       a = -2.000      CL =  0.0079
      Cm = -0.0486     CD =  0.00710   =>   CDf =  0.00621    CDp =  0.00089

 Side 1  free  transition at x/c =  0.0196    4
 Side 2  free  transition at x/c =  0.0211    4

 198   rms: 0.2357E-01   max: 0.5214E+00   D at    4  2
       a = -2.000      CL =  0.0089
      Cm = -0.0483     CD =  0.00709   =>   CDf =  0.00621    CDp =  0.00088

 Side 1  free  transition at x/c =  0.0196    4
 Side 2  free  transition at x/c =  0.0287    5

 199   rms: 0.1171E+00   max: -.2641E+01   D at    5  2   RLX: 0.189
       a = -2.000      CL =  0.0073
      Cm = -0.0487     CD =  0.00707   =>   CDf =  0.00619    CDp =  0.00088

 Side 1  free  transition at x/c =  0.0196    4
 Side 2  free  transition at x/c =  0.0250    5

 200   rms: 0.1040E+00   max: -.1479E+01   D at    5  2   RLX: 0.338
       a = -2.000      CL =  0.0079
      Cm = -0.0486     CD =  0.00710   =>   CDf =  0.00621    CDp =  0.00089

 Side 1  free  transition at x/c =  0.0196    4
 Side 2  free  transition at x/c =  0.0211    4

 201   rms: 0.2357E-01   max: 0.5214E+00   D at    4  2
       a = -2.000      CL =  0.0089
      Cm = -0.0483     CD =  0.00709   =>   CDf =  0.00621    CDp =  0.00088

 Side 1  free  transition at x/c =  0.0196    4
 Side 2  free  transition at x/c =  0.0287    5

 202   rms: 0.1171E+00   max: -.2641E+01   D at    5  2   RLX: 0.189
       a = -2.000      CL =  0.0073
      Cm = -0.0487     CD =  0.00707   =>   CDf =  0.00619    CDp =  0.00088

 Side 1  free  transition at x/c =  0.0196    4
 Side 2  free  transition at x/c =  0.0250    5

 203   rms: 0.1040E+00   max: -.1479E+01   D at    5  2   RLX: 0.338
       a = -2.000      CL =  0.0079
      Cm = -0.0486     CD =  0.00710   =>   CDf =  0.00621    CDp =  0.00089

 Side 1  free  transition at x/c =  0.0196    4
 Side 2  free  transition at x/c =  0.0211    4

 204   rms: 0.2357E-01   max: 0.5214E+00   D at    4  2
       a = -2.000      CL =  0.0089
      Cm = -0.0483     CD =  0.00709   =>   CDf =  0.00621    CDp =  0.00088

 Side 1  free  transition at x/c =  0.0196    4
 Side 2  free  transition at x/c =  0.0287    5

 205   rms: 0.1171E+00   max: -.2641E+01   D at    5  2   RLX: 0.189
       a = -2.000      CL =  0.0073
      Cm = -0.0487     CD =  0.00707   =>   CDf =  0.00619    CDp =  0.00088

 Side 1  free  transition at x/c =  0.0196    4
 Side 2  free  transition at x/c =  0.0250    5

 206   rms: 0.1040E+00   max: -.1479E+01   D at    5  2   RLX: 0.338
       a = -2.000      CL =  0.0079
      Cm = -0.0486     CD =  0.00710   =>   CDf =  0.00621    CDp =  0.00089

 Side 1  free  transition at x/c =  0.0196    4
 Side 2  free  transition at x/c =  0.0211    4

 207   rms: 0.2357E-01   max: 0.5214E+00   D at    4  2
       a = -2.000      CL =  0.0089
      Cm = -0.0483     CD =  0.00709   =>   CDf =  0.00621    CDp =  0.00088

 Side 1  free  transition at x/c =  0.0196    4
 Side 2  free  transition at x/c =  0.0287    5

 208   rms: 0.1171E+00   max: -.2641E+01   D at    5  2   RLX: 0.189
       a = -2.000      CL =  0.0073
      Cm = -0.0487     CD =  0.00707   =>   CDf =  0.00619    CDp =  0.00088

 Side 1  free  transition at x/c =  0.0196    4
 Side 2  free  transition at x/c =  0.0250    5

 209   rms: 0.1040E+00   max: -.1479E+01   D at    5  2   RLX: 0.338
       a = -2.000      CL =  0.0079
      Cm = -0.0486     CD =  0.00710   =>   CDf =  0.00621    CDp =  0.00089

 Side 1  free  transition at x/c =  0.0196    4
 Side 2  free  transition at x/c =  0.0211    4

 210   rms: 0.2357E-01   max: 0.5214E+00   D at    4  2
       a = -2.000      CL =  0.0089
      Cm = -0.0483     CD =  0.00709   =>   CDf =  0.00621    CDp =  0.00088

 Side 1  free  transition at x/c =  0.0196    4
 Side 2  free  transition at x/c =  0.0287    5

 211   rms: 0.1171E+00   max: -.2641E+01   D at    5  2   RLX: 0.189
       a = -2.000      CL =  0.0073
      Cm = -0.0487     CD =  0.00707   =>   CDf =  0.00619    CDp =  0.00088

 Side 1  free  transition at x/c =  0.0196    4
 Side 2  free  transition at x/c =  0.0250    5

 212   rms: 0.1040E+00   max: -.1479E+01   D at    5  2   RLX: 0.338
       a = -2.000      CL =  0.0079
      Cm = -0.0486     CD =  0.00710   =>   CDf =  0.00621    CDp =  0.00089

 Side 1  free  transition at x/c =  0.0196    4
 Side 2  free  transition at x/c =  0.0211    4

 213   rms: 0.2357E-01   max: 0.5214E+00   D at    4  2
       a = -2.000      CL =  0.0089
      Cm = -0.0483     CD =  0.00709   =>   CDf =  0.00621    CDp =  0.00088

 Side 1  free  transition at x/c =  0.0196    4
 Side 2  free  transition at x/c =  0.0287    5

 214   rms: 0.1171E+00   max: -.2641E+01   D at    5  2   RLX: 0.189
       a = -2.000      CL =  0.0073
      Cm = -0.0487     CD =  0.00707   =>   CDf =  0.00619    CDp =  0.00088

 Side 1  free  transition at x/c =  0.0196    4
 Side 2  free  transition at x/c =  0.0250    5

 215   rms: 0.1040E+00   max: -.1479E+01   D at    5  2   RLX: 0.338
       a = -2.000      CL =  0.0079
      Cm = -0.0486     CD =  0.00710   =>   CDf =  0.00621    CDp =  0.00089

 Side 1  free  transition at x/c =  0.0196    4
 Side 2  free  transition at x/c =  0.0211    4

 216   rms: 0.2357E-01   max: 0.5214E+00   D at    4  2
       a = -2.000      CL =  0.0089
      Cm = -0.0483     CD =  0.00709   =>   CDf =  0.00621    CDp =  0.00088

 Side 1  free  transition at x/c =  0.0196    4
 Side 2  free  transition at x/c =  0.0287    5

 217   rms: 0.1171E+00   max: -.2641E+01   D at    5  2   RLX: 0.189
       a = -2.000      CL =  0.0073
[...]
 MRCHDU: Convergence failed at  69  side 1    Res =  0.4383E+01
 MRCHDU: Convergence failed at  70  side 1    Res =  0.4596E+01
 MRCHDU: Convergence failed at  71  side 1    Res =  0.4917E+01
 MRCHDU: Convergence failed at  72  side 1    Res =  0.5427E+01
 MRCHDU: Convergence failed at  73  side 1    Res =  0.6276E+01
 MRCHDU: Convergence failed at  74  side 1    Res =  0.7750E+01
 MRCHDU: Convergence failed at  75  side 1    Res =  0.1043E+02
 MRCHDU: Convergence failed at  76  side 1    Res =  0.1562E+02
 MRCHDU: Convergence failed at  77  side 1    Res =  0.2661E+02
 MRCHDU: Convergence failed at  78  side 1    Res =  0.5834E+02
 MRCHDU: Convergence failed at  79  side 1    Res =  0.1391E+04
 MRCHDU: Convergence failed at  80  side 1    Res =  0.4004E+03
 MRCHDU: Convergence failed at  81  side 1    Res =  0.2386E+03
 MRCHDU: Convergence failed at  82  side 1    Res =  0.1719E+03
 MRCHDU: Convergence failed at  83  side 1    Res =  0.1353E+03
 MRCHDU: Convergence failed at  84  side 1    Res =  0.1116E+03
 MRCHDU: Convergence failed at  85  side 1    Res =  0.9550E+02
 MRCHDU: Convergence failed at  86  side 1    Res =  0.8323E+02
 MRCHDU: Convergence failed at  87  side 1    Res =  0.7396E+02
 MRCHDU: Convergence failed at  88  side 1    Res =  0.6641E+02
 MRCHDU: Convergence failed at  89  side 1    Res =  0.6024E+02
 MRCHDU: Convergence failed at  90  side 1    Res =  0.5510E+02
 MRCHDU: Convergence failed at  91  side 1    Res =  0.5064E+02
 MRCHDU: Convergence failed at  92  side 1    Res =  0.4679E+02
 MRCHDU: Convergence failed at  93  side 1    Res =  0.4343E+02
 MRCHDU: Convergence failed at  94  side 1    Res =  0.4042E+02
 MRCHDU: Convergence failed at  95  side 1    Res =  0.3771E+02
 MRCHDU: Convergence failed at  96  side 1    Res =  0.3524E+02
 MRCHDU: Convergence failed at  97  side 1    Res =  0.3297E+02
 MRCHDU: Convergence failed at  98  side 1    Res =  0.3086E+02
 MRCHDU: Convergence failed at  99  side 1    Res =  0.2888E+02
 MRCHDU: Convergence failed at 100  side 1    Res =  0.2700E+02
 MRCHDU: Convergence failed at 101  side 1    Res =  0.2558E+02
 MRCHDU: Convergence failed at 102  side 1    Res =  0.3014E+02
 MRCHDU: Convergence failed at 103  side 1    Res =  0.3795E+02
 MRCHDU: Convergence failed at 104  side 1    Res =  0.5432E+02
 MRCHDU: Convergence failed at 105  side 1    Res =  0.8256E+07
 Side 1 forced transition at x/c =  1.0000  105
 Side 2 forced transition at x/c =  1.0000  100

 496   rms: 0.2632E+01   max: -.2473E+01   U at  105  1   RLX: 0.152
       a = 10.000      CL =  8.3976
      Cm = -2.0306     CD =  0.00030   =>   CDf =  0.02354    CDp = -0.02324

 MRCHDU: Convergence failed at   5  side 1    Res =  0.1005E+02
 Side 1  free  transition at x/c =  0.0171    6
 Side 2 forced transition at x/c =  1.0000  100

 497   rms: 0.2226E+01   max: -.2080E+01   U at  105  1   RLX: 0.071
       a = 10.000      CL =  7.7075
      Cm = -1.8227     CD =  0.00199   =>   CDf =  0.02250    CDp = -0.02051

 TRCHEK2: N2 convergence failed.
 x:  0.03165  0.04601  0.04672  N:  0.000  9.000  9.000  Nx: 889.907   dN:-0.162E+02
 TRCHEK2: N2 convergence failed.
 x:  0.03165  0.04601  0.04672  N:  0.000  9.000  9.000  Nx: 862.905   dN:-0.153E+02
 TRCHEK2: N2 convergence failed.
 x:  0.03165  0.04601  0.04672  N:  0.000  9.000  9.000  Nx: 853.233   dN:-0.149E+02
 TRCHEK2: N2 convergence failed.
 x:  0.03165  0.04672  0.04672  N:  0.000  9.000 10.000  Nx: 811.099   dN: 0.322E+01
 TRCHEK2: N2 convergence failed.
 x:  0.03165  0.04672  0.04672  N:  0.000  9.000 10.000  Nx:1151.334   dN: 0.835E+01
 TRCHEK2: N2 convergence failed.
 x:  0.03165  0.04672  0.04672  N:  0.000  9.000 10.000  Nx:1579.095   dN: 0.148E+02
 TRCHEK2: N2 convergence failed.
 x:  0.03165  0.04672  0.04672  N:  0.000  9.000 10.000  Nx:2196.113   dN: 0.241E+02
 TRCHEK2: N2 convergence failed.
 x:  0.03165  0.04521  0.04672  N:  0.000  9.000  9.444  Nx:2321.930   dN:-0.136E+02
 MRCHDU: Convergence failed at   5  side 1    Res =  0.7630E-01
 TRCHEK2: N2 convergence failed.
 x:  0.03165  0.04521  0.04672  N:  0.000  9.000  9.444  Nx:2482.835   dN:-0.137E+02
 TRCHEK2: N2 convergence failed.
 x:  0.03165  0.04521  0.04672  N:  0.000  9.000  9.444  Nx:2482.835   dN:-0.137E+02
 Side 1  free  transition at x/c =  0.0075    5
 Side 2 forced transition at x/c =  1.0000  100

 498   rms: 0.2460E+01   max: -.1928E+01   U at  105  1   RLX: 0.079
       a = 10.000      CL =  7.0750
      Cm = -1.6182     CD =  0.00245   =>   CDf =  0.01916    CDp = -0.01671

 TRCHEK2: N2 convergence failed.
 x:  0.03156  0.04591  0.04662  N:  0.000  9.000  9.000  Nx:2164.751   dN:-0.906E+01
 TRCHEK2: N2 convergence failed.
 x:  0.03156  0.04662  0.04662  N:  0.000  9.000 10.000  Nx:2159.187   dN: 0.235E+02
 TRCHEK2: N2 convergence failed.
 x:  0.03156  0.04512  0.04662  N:  0.000  9.000  9.444  Nx:1869.945   dN:-0.993E+01
 TRCHEK2: N2 convergence failed.
 x:  0.03156  0.04591  0.04662  N:  0.000  9.000  9.000  Nx:1934.334   dN:-0.898E+01
 TRCHEK2: N2 convergence failed.
 x:  0.03156  0.04512  0.04662  N:  0.000  9.000  9.444  Nx:2139.618   dN:-0.982E+01
 TRCHEK2: N2 convergence failed.
 x:  0.03156  0.04662  0.04662  N:  0.000  9.000 10.000  Nx:2155.628   dN: 0.235E+02
 TRCHEK2: N2 convergence failed.
 x:  0.03156  0.04591  0.04662  N:  0.000  9.000  9.000  Nx:1757.859   dN:-0.909E+01
 TRCHEK2: N2 convergence failed.
 x:  0.03156  0.04662  0.04662  N:  0.000  9.000 10.000  Nx:1741.016   dN: 0.172E+02
 TRCHEK2: N2 convergence failed.
 x:  0.03156  0.04662  0.04662  N:  0.000  9.000 10.000  Nx:1550.750   dN: 0.144E+02
 TRCHEK2: N2 convergence failed.
 x:  0.03156  0.04512  0.04662  N:  0.000  9.000  9.444  Nx:1701.840   dN:-0.980E+01
 TRCHEK2: N2 convergence failed.
 x:  0.03156  0.04591  0.04662  N:  0.000  9.000  9.000  Nx:1743.112   dN:-0.905E+01
 TRCHEK2: N2 convergence failed.
 x:  0.03156  0.04512  0.04662  N:  0.000  9.000  9.444  Nx:1916.481   dN:-0.977E+01
 TRCHEK2: N2 convergence failed.
 x:  0.03156  0.04512  0.04662  N:  0.000  9.000  9.444  Nx:2114.802   dN:-0.976E+01
 TRCHEK2: N2 convergence failed.
 x:  0.03156  0.04591  0.04662  N:  0.000  9.000  9.000  Nx:2369.124   dN:-0.913E+01
 TRCHEK2: N2 convergence failed.
 x:  0.03156  0.04662  0.04662  N:  0.000  9.000 10.000  Nx:2397.797   dN: 0.271E+02
 TRCHEK2: N2 convergence failed.
 x:  0.03156  0.04591  0.04662  N:  0.000  9.000  9.000  Nx:1951.160   dN:-0.909E+01
 TRCHEK2: N2 convergence failed.
 x:  0.03156  0.04662  0.04662  N:  0.000  9.000 10.000  Nx:1940.132   dN: 0.202E+02
 TRCHEK2: N2 convergence failed.
 x:  0.03156  0.04662  0.04662  N:  0.000  9.000 10.000  Nx:1597.500   dN: 0.151E+02
 TRCHEK2: N2 convergence failed.
 x:  0.03156  0.04512  0.04662  N:  0.000  9.000  9.444  Nx:1707.645   dN:-0.982E+01
 TRCHEK2: N2 convergence failed.
 x:  0.03156  0.04591  0.04662  N:  0.000  9.000  9.000  Nx:1747.255   dN:-0.913E+01
 TRCHEK2: N2 convergence failed.
 x:  0.03156  0.04512  0.04662  N:  0.000  9.000  9.444  Nx:1920.332   dN:-0.984E+01
 TRCHEK2: N2 convergence failed.
 x:  0.03156  0.04512  0.04662  N:  0.000  9.000  9.444  Nx:2114.651   dN:-0.984E+01
 TRCHEK2: N2 convergence failed.
 x:  0.03156  0.04591  0.04662  N:  0.000  9.000  9.000  Nx:2349.738   dN:-0.905E+01
 TRCHEK2: N2 convergence failed.
 x:  0.03156  0.04662  0.04662  N:  0.000  9.000 10.000  Nx:2364.743   dN: 0.266E+02
 TRCHEK2: N2 convergence failed.
 x:  0.03156  0.04591  0.04662  N:  0.000  9.000  9.000  Nx:1916.215   dN:-0.912E+01
 MRCHDU: Convergence failed at   5  side 1    Res =  0.4251E-01
 TRCHEK2: N2 convergence failed.
 x:  0.03156  0.04512  0.04662  N:  0.000  9.000  9.444  Nx:2120.939   dN:-0.985E+01
 TRCHEK2: N2 convergence failed.
 x:  0.03156  0.04512  0.04662  N:  0.000  9.000  9.444  Nx:2120.939   dN:-0.985E+01
 Side 1  free  transition at x/c =  0.0075    5
 Side 2 forced transition at x/c =  1.0000  100

 499   rms: 0.1941E+01   max: -.9534E+01   C at    5  1   RLX: 0.052
       a = 10.000      CL =  6.6707
      Cm = -1.5052     CD =  0.00247   =>   CDf =  0.01733    CDp = -0.01487

 TRCHEK2: N2 convergence failed.
 x:  0.03157  0.04663  0.04663  N:  0.000  9.000 10.000  Nx:1778.842   dN: 0.178E+02
 TRCHEK2: N2 convergence failed.
 x:  0.03157  0.04663  0.04663  N:  0.000  9.000 10.000  Nx:1744.563   dN: 0.173E+02
 TRCHEK2: N2 convergence failed.
 x:  0.03157  0.04513  0.04663  N:  0.000  9.000  9.444  Nx:1919.507   dN:-0.112E+02
 TRCHEK2: N2 convergence failed.
 x:  0.03157  0.04593  0.04663  N:  0.000  9.000  9.000  Nx:1959.170   dN:-0.105E+02
 TRCHEK2: N2 convergence failed.
 x:  0.03157  0.04513  0.04663  N:  0.000  9.000  9.444  Nx:2136.792   dN:-0.113E+02
 TRCHEK2: N2 convergence failed.
 x:  0.03157  0.04513  0.04663  N:  0.000  9.000  9.444  Nx:2316.708   dN:-0.114E+02
 TRCHEK2: N2 convergence failed.
 x:  0.03157  0.04513  0.04663  N:  0.000  9.000  9.444  Nx:2535.925   dN:-0.116E+02
 TRCHEK2: N2 convergence failed.
 x:  0.03157  0.03360  0.04663  N:  0.000  9.000 67.767  Nx:7471.154   dN: 0.594E+02
 TRCHEK2: N2 convergence failed.
 x:  0.03157  0.03345  0.04663  N:  0.000  9.000 72.965  Nx:6876.010   dN: 0.332E+02
 TRCHEK2: N2 convergence failed.
 x:  0.03157  0.03367  0.04663  N:  0.000  9.000 65.391  Nx:5576.293   dN: 0.214E+02
 TRCHEK2: N2 convergence failed.
 x:  0.03157  0.03364  0.04663  N:  0.000  9.000 66.346  Nx:4661.480   dN: 0.432E+01
 TRCHEK2: N2 convergence failed.
 x:  0.03157  0.04593  0.04663  N:  0.000  9.000  9.000  Nx: 870.481   dN:-0.211E+02
 TRCHEK2: N2 convergence failed.
 x:  0.03157  0.04663  0.04663  N:  0.000  9.000 10.000  Nx: 805.148   dN: 0.313E+01
 TRCHEK2: N2 convergence failed.
 x:  0.03157  0.04593  0.04663  N:  0.000  9.000  9.000  Nx:1062.519   dN:-0.134E+02
 TRCHEK2: N2 convergence failed.
 x:  0.03157  0.04663  0.04663  N:  0.000  9.000 10.000  Nx: 995.407   dN: 0.600E+01
 TRCHEK2: N2 convergence failed.
 x:  0.03157  0.04593  0.04663  N:  0.000  9.000  9.000  Nx:1265.328   dN:-0.112E+02
 TRCHEK2: N2 convergence failed.
 x:  0.03157  0.04593  0.04663  N:  0.000  9.000  9.000  Nx:1282.934   dN:-0.111E+02
 TRCHEK2: N2 convergence failed.
 x:  0.03157  0.04593  0.04663  N:  0.000  9.000  9.000  Nx:1303.524   dN:-0.110E+02
 MRCHDU: Convergence failed at   5  side 1    Res =  0.2886E-01
 TRCHEK2: N2 convergence failed.
 x:  0.03157  0.04593  0.04663  N:  0.000  9.000  9.000  Nx:1326.005   dN:-0.109E+02
 TRCHEK2: N2 convergence failed.
 x:  0.03157  0.04593  0.04663  N:  0.000  9.000  9.000  Nx:1326.005   dN:-0.109E+02
 Side 1  free  transition at x/c =  0.0082    5
 Side 2 forced transition at x/c =  1.0000  100

 500   rms: 0.2903E+01   max: 0.1050E+02   D at    7  1   RLX: 0.054
       a = 10.000      CL =  6.2911
      Cm = -1.3958     CD =  0.00292   =>   CDf =  0.01635    CDp = -0.01343

 TRCHEK2: N2 convergence failed.
 x:  0.03138  0.04574  0.04645  N:  0.000  9.000  9.000  Nx:1494.162   dN:-0.708E+01
 TRCHEK2: N2 convergence failed.
 x:  0.03138  0.04494  0.04645  N:  0.000  9.000  9.444  Nx:1468.075   dN:-0.947E+01
 TRCHEK2: N2 convergence failed.
 x:  0.03138  0.04574  0.04645  N:  0.000  9.000  9.000  Nx:1302.777   dN:-0.105E+02
 TRCHEK2: N2 convergence failed.
 x:  0.03138  0.04645  0.04645  N:  0.000  9.000 10.000  Nx:1156.873   dN: 0.843E+01
 TRCHEK2: N2 convergence failed.
 x:  0.03138  0.04645  0.04645  N:  0.000  9.000 10.000  Nx:1343.609   dN: 0.112E+02
 TRCHEK2: N2 convergence failed.
 x:  0.03138  0.04574  0.04645  N:  0.000  9.000  9.000  Nx:1483.038   dN:-0.133E+02
 TRCHEK2: N2 convergence failed.
 x:  0.03138  0.04645  0.04645  N:  0.000  9.000 10.000  Nx:1356.894   dN: 0.114E+02
 TRCHEK2: N2 convergence failed.
 x:  0.03138  0.04574  0.04645  N:  0.000  9.000  9.000  Nx: 851.364   dN:-0.277E+02
 TRCHEK2: N2 convergence failed.
 x:  0.03138  0.04645  0.04645  N:  0.000  9.000 10.000  Nx: 786.533   dN: 0.285E+01
 MRCHDU: Convergence failed at   5  side 1    Res =  0.2850E-02
 Side 1  free  transition at x/c =  0.0064    5
 Side 2 forced transition at x/c =  1.0000  100

 501   rms: 0.1734E+01   max: -.1592E+01   U at  105  1   RLX: 0.102
       a = 10.000      CL =  5.6399
      Cm = -1.2136     CD =  0.00246   =>   CDf =  0.01646    CDp = -0.01399

 Side 1  free  transition at x/c =  0.0064    5
 Side 2 forced transition at x/c =  1.0000  100

 502   rms: 0.1573E+01   max: -.1428E+01   U at  105  1   RLX: 0.117
       a = 10.000      CL =  5.0058
      Cm = -1.0351     CD =  0.00268   =>   CDf =  0.01483    CDp = -0.01215

 Side 1  free  transition at x/c =  0.0064    5
 Side 2 forced transition at x/c =  1.0000  100

 503   rms: 0.1420E+01   max: -.1258E+01   U at  105  1   RLX: 0.137
       a = 10.000      CL =  4.3861
      Cm = -0.8623     CD =  0.00301   =>   CDf =  0.01320    CDp = -0.01019

 MRCHDU: Convergence failed at   5  side 1    Res =  0.8559E+01
 MRCHDU: Convergence failed at   6  side 1    Res =  0.1153E+01
 MRCHDU: Convergence failed at   7  side 1    Res =  0.1446E+01
 MRCHDU: Convergence failed at   8  side 1    Res =  0.3208E+00
 MRCHDU: Convergence failed at   9  side 1    Res =  0.5338E+00
 MRCHDU: Convergence failed at  10  side 1    Res =  0.1625E+01
 MRCHDU: Convergence failed at  11  side 1    Res =  0.3084E+01
 MRCHDU: Convergence failed at  12  side 1    Res =  0.1861E+02
 MRCHDU: Convergence failed at  13  side 1    Res =  0.8715E+00
 MRCHDU: Convergence failed at  14  side 1    Res =  0.7004E+00
 MRCHDU: Convergence failed at  15  side 1    Res =  0.7522E+00
 MRCHDU: Convergence failed at  16  side 1    Res =  0.9106E+00
 MRCHDU: Convergence failed at  17  side 1    Res =  0.1062E+01
 MRCHDU: Convergence failed at  18  side 1    Res =  0.1296E+01
 MRCHDU: Convergence failed at  19  side 1    Res =  0.2073E+01
 MRCHDU: Convergence failed at  20  side 1    Res =  0.2070E+01
 MRCHDU: Convergence failed at  21  side 1    Res =  0.2091E+01
 MRCHDU: Convergence failed at  22  side 1    Res =  0.2124E+01
 MRCHDU: Convergence failed at  23  side 1    Res =  0.2161E+01
 MRCHDU: Convergence failed at  24  side 1    Res =  0.2200E+01
 MRCHDU: Convergence failed at  25  side 1    Res =  0.2241E+01
 MRCHDU: Convergence failed at  26  side 1    Res =  0.2285E+01
 MRCHDU: Convergence failed at  27  side 1    Res =  0.2329E+01
 MRCHDU: Convergence failed at  28  side 1    Res =  0.2369E+01
 MRCHDU: Convergence failed at  29  side 1    Res =  0.2408E+01
 MRCHDU: Convergence failed at  30  side 1    Res =  0.2441E+01
 MRCHDU: Convergence failed at  31  side 1    Res =  0.2479E+01
 MRCHDU: Convergence failed at  32  side 1    Res =  0.2515E+01
 MRCHDU: Convergence failed at  33  side 1    Res =  0.2550E+01
 MRCHDU: Convergence failed at  34  side 1    Res =  0.2585E+01
 MRCHDU: Convergence failed at  35  side 1    Res =  0.2603E+01
 MRCHDU: Convergence failed at  36  side 1    Res =  0.2620E+01
 MRCHDU: Convergence failed at  37  side 1    Res =  0.2629E+01
 MRCHDU: Convergence failed at  38  side 1    Res =  0.2419E+01
 MRCHDU: Convergence failed at  39  side 1    Res =  0.2457E+01
 MRCHDU: Convergence failed at  40  side 1    Res =  0.2496E+01
 MRCHDU: Convergence failed at  41  side 1    Res =  0.2538E+01
 MRCHDU: Convergence failed at  42  side 1    Res =  0.2581E+01
 MRCHDU: Convergence failed at  43  side 1    Res =  0.2625E+01
 MRCHDU: Convergence failed at  44  side 1    Res =  0.2667E+01
 MRCHDU: Convergence failed at  45  side 1    Res =  0.2719E+01
 MRCHDU: Convergence failed at  46  side 1    Res =  0.2768E+01
 MRCHDU: Convergence failed at  47  side 1    Res =  0.2813E+01
 MRCHDU: Convergence failed at  48  side 1    Res =  0.2858E+01
 MRCHDU: Convergence failed at  49  side 1    Res =  0.2902E+01
 MRCHDU: Convergence failed at  50  side 1    Res =  0.2946E+01
 MRCHDU: Convergence failed at  51  side 1    Res =  0.2990E+01
 MRCHDU: Convergence failed at  52  side 1    Res =  0.3034E+01
 MRCHDU: Convergence failed at  53  side 1    Res =  0.3078E+01
 MRCHDU: Convergence failed at  54  side 1    Res =  0.3122E+01
 MRCHDU: Convergence failed at  55  side 1    Res =  0.3167E+01
 MRCHDU: Convergence failed at  56  side 1    Res =  0.3211E+01
 MRCHDU: Convergence failed at  57  side 1    Res =  0.3255E+01
 MRCHDU: Convergence failed at  58  side 1    Res =  0.3300E+01
 MRCHDU: Convergence failed at  59  side 1    Res =  0.3345E+01
 MRCHDU: Convergence failed at  60  side 1    Res =  0.3391E+01
 MRCHDU: Convergence failed at  61  side 1    Res =  0.3438E+01
 MRCHDU: Convergence failed at  62  side 1    Res =  0.3485E+01
 MRCHDU: Convergence failed at  63  side 1    Res =  0.3583E+01
 MRCHDU: Convergence failed at  64  side 1    Res =  0.3643E+01
 MRCHDU: Convergence failed at  65  side 1    Res =  0.3707E+01
 MRCHDU: Convergence failed at  66  side 1    Res =  0.3776E+01
 MRCHDU: Convergence failed at  67  side 1    Res =  0.3851E+01
 MRCHDU: Convergence failed at  68  side 1    Res =  0.3932E+01
 MRCHDU: Convergence failed at  69  side 1    Res =  0.4022E+01
 MRCHDU: Convergence failed at  70  side 1    Res =  0.4123E+01
 MRCHDU: Convergence failed at  71  side 1    Res =  0.4237E+01
 MRCHDU: Convergence failed at  72  side 1    Res =  0.4369E+01
 MRCHDU: Convergence failed at  73  side 1    Res =  0.4523E+01
 MRCHDU: Convergence failed at  74  side 1    Res =  0.6255E+01
 MRCHDU: Convergence failed at  75  side 1    Res =  0.6787E+01
 MRCHDU: Convergence failed at  76  side 1    Res =  0.7455E+01
 MRCHDU: Convergence failed at  77  side 1    Res =  0.8316E+01
 MRCHDU: Convergence failed at  78  side 1    Res =  0.1316E+02
 MRCHDU: Convergence failed at  79  side 1    Res =  0.1312E+02
 MRCHDU: Convergence failed at  80  side 1    Res =  0.1308E+02
 MRCHDU: Convergence failed at  81  side 1    Res =  0.1304E+02
 MRCHDU: Convergence failed at  82  side 1    Res =  0.1301E+02
 MRCHDU: Convergence failed at  83  side 1    Res =  0.1298E+02
 MRCHDU: Convergence failed at  84  side 1    Res =  0.1295E+02
 MRCHDU: Convergence failed at  85  side 1    Res =  0.1293E+02
 MRCHDU: Convergence failed at  86  side 1    Res =  0.1269E+02
 MRCHDU: Convergence failed at  87  side 1    Res =  0.1264E+02
 MRCHDU: Convergence failed at  88  side 1    Res =  0.1258E+02
 MRCHDU: Convergence failed at  89  side 1    Res =  0.1251E+02
 MRCHDU: Convergence failed at  90  side 1    Res =  0.1243E+02
 MRCHDU: Convergence failed at  91  side 1    Res =  0.1235E+02
 MRCHDU: Convergence failed at  92  side 1    Res =  0.1224E+02
 MRCHDU: Convergence failed at  93  side 1    Res =  0.1211E+02
 MRCHDU: Convergence failed at  94  side 1    Res =  0.1195E+02
 MRCHDU: Convergence failed at  95  side 1    Res =  0.1176E+02
 MRCHDU: Convergence failed at  96  side 1    Res =  0.1151E+02
 MRCHDU: Convergence failed at  97  side 1    Res =  0.9656E+01
 MRCHDU: Convergence failed at  98  side 1    Res =  0.9282E+01
 MRCHDU: Convergence failed at  99  side 1    Res =  0.8860E+01
 MRCHDU: Convergence failed at 100  side 1    Res =  0.8368E+01
 MRCHDU: Convergence failed at 101  side 1    Res =  0.7652E+01
 MRCHDU: Convergence failed at 102  side 1    Res =  0.6155E+01
 MRCHDU: Convergence failed at 103  side 1    Res =  0.5604E+01
 MRCHDU: Convergence failed at 104  side 1    Res =  0.5947E+01
 MRCHDU: Convergence failed at 105  side 1    Res =  0.1005E+03
 Side 1 forced transition at x/c =  1.0000  105
 Side 2 forced transition at x/c =  1.0000  100

 504   rms: 0.2602E+01   max: -.2450E+01   U at  105  1   RLX: 0.153
       a = 10.000      CL =  8.2715
      Cm = -1.9984     CD =  0.00029   =>   CDf =  0.02327    CDp = -0.02298

 MRCHDU: Convergence failed at   5  side 1    Res =  0.9024E+01
 Side 1  free  transition at x/c =  0.0171    6
 Side 2 forced transition at x/c =  1.0000  100

 505   rms: 0.2198E+01   max: -.2058E+01   U at  105  1   RLX: 0.072
       a = 10.000      CL =  7.5835
      Cm = -1.7908     CD =  0.00197   =>   CDf =  0.02221    CDp = -0.02023
 VISCAL:  Convergence failed
      9.000    4.1356   0.001972   0.000437   0.000471   0.000035    0.0171     #

.OPERva   c>  
 XFOIL   c>  