  
       XFOIL         Version 6.99
  
 Calculated polar for: NACA 2212                                       
  
 1 1 Reynolds number fixed          Mach number fixed         
  
 xtrf =   1.000 (top)        1.000 (bottom)  
 Mach =   0.000     Re =     3.000 e 6     Ncrit =   9.000  9.000
  
   alpha    CL        CD       CDp       CM     Top_Xtr  Bot_Xtr  Top_Itr  Bot_Itr
  ------ -------- --------- --------- -------- -------- -------- -------- --------
   0.000   0.2083   0.00595   0.00039  -0.0347   0.3853   0.4411  39.6813 125.4808
   1.000   0.3182   0.00579   0.00048  -0.0345   0.3166   0.6350  43.9415 137.0530
   2.000   0.4283   0.00570   0.00062  -0.0340   0.2730   0.8015  46.6778 146.9174
   3.000   0.5356   0.00570   0.00082  -0.0326   0.2491   0.9339  48.1961 154.8275
   4.000   0.6454   0.00599   0.00098  -0.0318   0.2339   0.9771  49.1765 157.7537
   5.000   0.7697   0.00638   0.00115  -0.0346   0.2194   0.9932  50.1212 159.1866
   6.000   0.9023   0.00683   0.00133  -0.0394   0.2015   0.9983  51.3243 159.7961
   7.000   1.0130   0.00748   0.00156  -0.0396   0.1690   1.0000  53.6328 160.0000
   8.000   1.1061   0.00858   0.00205  -0.0364   0.1171   1.0000  57.5769 160.0000
   9.000   1.2002   0.01010   0.00284  -0.0337   0.0649   1.0000  62.2226 160.0000
  10.000   1.2959   0.01155   0.00362  -0.0316   0.0384   1.0000  65.5665 160.0000
   0.000   0.2083   0.00595   0.00039  -0.0347   0.3853   0.4411  39.6813 125.4808
   1.000   0.3182   0.00579   0.00048  -0.0345   0.3166   0.6350  43.9415 137.0530
   2.000   0.4283   0.00570   0.00062  -0.0340   0.2730   0.8015  46.6778 146.9174
   3.000   0.5356   0.00570   0.00082  -0.0326   0.2491   0.9339  48.1961 154.8275
   4.000   0.6454   0.00599   0.00098  -0.0318   0.2339   0.9771  49.1765 157.7537
   5.000   0.7697   0.00638   0.00115  -0.0346   0.2194   0.9932  50.1212 159.1866
   6.000   0.9023   0.00683   0.00133  -0.0394   0.2015   0.9983  51.3243 159.7961
   7.000   1.0130   0.00748   0.00156  -0.0396   0.1690   1.0000  53.6328 160.0000
   8.000   1.1061   0.00858   0.00205  -0.0364   0.1171   1.0000  57.5769 160.0000
   9.000   1.2002   0.01010   0.00284  -0.0337   0.0649   1.0000  62.2226 160.0000
  10.000   1.2959   0.01155   0.00362  -0.0316   0.0384   1.0000  65.5665 160.0000
