  
       XFOIL         Version 6.99
  
 Calculated polar for:                                                 
  
 1 1 Reynolds number fixed          Mach number fixed         
  
 xtrf =   1.000 (top)        1.000 (bottom)  
 Mach =   0.000     Re =     3.743 e 6     Ncrit =   9.000  9.000
  
   alpha    CL        CD       CDp       CM     Top_Xtr  Bot_Xtr  Top_Itr  Bot_Itr
  ------ -------- --------- --------- -------- -------- -------- -------- --------
  -2.000   0.2462   0.00670  -0.00847  -0.0983   0.5036   0.0323  50.7545 103.7068
  -1.900   0.2568   0.00669  -0.00839  -0.0982   0.5001   0.0333  51.0952 103.8019
  -1.800   0.2675   0.00668  -0.00832  -0.0981   0.4960   0.0342  51.5067 103.8842
  -1.700   0.2780   0.00668  -0.00825  -0.0980   0.4904   0.0351  52.0608 103.9593
  -1.600   0.2881   0.00665  -0.00820  -0.0978   0.4846   0.0439  52.6336 104.7963
  -1.500   0.2985   0.00666  -0.00813  -0.0977   0.4794   0.0455  53.1522 104.9553
  -1.400   0.3089   0.00665  -0.00807  -0.0976   0.4748   0.0505  53.6026 105.4343
  -1.300   0.3193   0.00665  -0.00800  -0.0974   0.4705   0.0539  54.0268 105.7599
  -1.200   0.3299   0.00665  -0.00794  -0.0974   0.4668   0.0553  54.3924 105.8936
  -1.100   0.3405   0.00666  -0.00787  -0.0973   0.4626   0.0561  54.8070 105.9746
  -1.000   0.3511   0.00667  -0.00781  -0.0972   0.4588   0.0578  55.1751 106.1327
  -0.900   0.3616   0.00667  -0.00775  -0.0971   0.4539   0.0604  55.6639 106.3873
  -0.800   0.3720   0.00667  -0.00769  -0.0970   0.4490   0.0627  56.1514 106.6129
  -0.700   0.3825   0.00668  -0.00764  -0.0969   0.4439   0.0647  56.6517 106.8039
  -0.600   0.3929   0.00669  -0.00758  -0.0967   0.4395   0.0668  57.0923 107.0133
  -0.500   0.4033   0.00669  -0.00753  -0.0966   0.4359   0.0722  57.4491 107.5306
  -0.400   0.4137   0.00670  -0.00748  -0.0965   0.4320   0.0753  57.8267 107.8371
  -0.300   0.4243   0.00670  -0.00743  -0.0964   0.4287   0.0774  58.1553 108.0369
  -0.200   0.4348   0.00670  -0.00738  -0.0963   0.4247   0.0814  58.5508 108.4318
  -0.100   0.4450   0.00672  -0.00733  -0.0962   0.4200   0.0846  59.0167 108.7543
   0.000   0.4555   0.00673  -0.00729  -0.0961   0.4147   0.0887  59.5376 109.1596
   0.100   0.4655   0.00674  -0.00725  -0.0959   0.4076   0.0946  60.2406 109.7454
   0.200   0.4755   0.00678  -0.00720  -0.0957   0.3993   0.0981  61.0619 110.0911
   0.300   0.4855   0.00680  -0.00716  -0.0955   0.3927   0.1038  61.7011 110.6620
   0.400   0.4957   0.00681  -0.00712  -0.0954   0.3870   0.1097  62.2525 111.2531
   0.500   0.5055   0.00684  -0.00708  -0.0951   0.3779   0.1172  63.1379 111.9956
   0.600   0.5154   0.00687  -0.00704  -0.0949   0.3716   0.1238  63.7506 112.6629
   0.700   0.5257   0.00689  -0.00700  -0.0948   0.3667   0.1263  64.2199 112.9065
   0.800   0.5358   0.00693  -0.00696  -0.0946   0.3599   0.1281  64.8858 113.0876
   0.900   0.5457   0.00697  -0.00693  -0.0944   0.3523   0.1311  65.6222 113.3972
   1.000   0.5555   0.00702  -0.00689  -0.0942   0.3444   0.1340  66.3889 113.6893
   1.100   0.5653   0.00707  -0.00685  -0.0940   0.3366   0.1368  67.1462 113.9733
   1.200   0.5752   0.00710  -0.00682  -0.0938   0.3301   0.1423  67.7751 114.5178
   1.400   0.5932   0.00730  -0.00673  -0.0930   0.3016   0.1451  70.5440 114.7988
   1.500   0.6032   0.00735  -0.00670  -0.0928   0.2962   0.1469  71.0697 114.9799
   1.600   0.6128   0.00741  -0.00667  -0.0926   0.2860   0.1499  72.0630 115.2904
   1.700   0.6220   0.00748  -0.00663  -0.0922   0.2757   0.1534  73.0568 115.6389
   1.900   0.6411   0.00759  -0.00657  -0.0917   0.2589   0.1670  74.6901 117.0205
   2.000   0.6493   0.00770  -0.00653  -0.0912   0.2431   0.1765  76.2402 117.9895
   2.100   0.6584   0.00775  -0.00650  -0.0909   0.2343   0.1896  77.0897 119.3250
   2.200   0.6672   0.00781  -0.00647  -0.0905   0.2217   0.2082  78.3161 121.2243
   2.300   0.6764   0.00786  -0.00644  -0.0901   0.2142   0.2239  79.0519 122.8419
   2.400   0.6862   0.00789  -0.00642  -0.0899   0.2084   0.2301  79.6140 123.4772
   2.500   0.6958   0.00794  -0.00641  -0.0897   0.2028   0.2373  80.1603 124.2123
   2.600   0.7047   0.00803  -0.00638  -0.0893   0.1917   0.2448  81.2559 124.9783
   2.700   0.7141   0.00809  -0.00636  -0.0890   0.1851   0.2507  81.8995 125.5909
   2.800   0.7237   0.00813  -0.00635  -0.0888   0.1796   0.2597  82.4427 126.5194
   2.900   0.7329   0.00819  -0.00634  -0.0885   0.1723   0.2714  83.1599 127.7142
   3.100   0.7505   0.00834  -0.00629  -0.0877   0.1530   0.2972  85.0474 130.3727
   3.200   0.7596   0.00839  -0.00628  -0.0873   0.1456   0.3103  85.7790 131.7240
   3.300   0.7684   0.00847  -0.00626  -0.0869   0.1365   0.3204  86.6781 132.7732
   3.400   0.7777   0.00851  -0.00626  -0.0866   0.1318   0.3361  87.1473 134.3882
   3.500   0.7867   0.00858  -0.00625  -0.0863   0.1247   0.3463  87.8520 135.4406
   3.600   0.7961   0.00862  -0.00625  -0.0860   0.1204   0.3608  88.2784 136.9394
   3.700   0.8042   0.00872  -0.00623  -0.0855   0.1084   0.3730  89.4764 138.1971
   3.900   0.8212   0.00879  -0.00623  -0.0846   0.0963   0.4297  90.6890 143.9893
   4.000   0.8296   0.00878  -0.00623  -0.0841   0.0915   0.4716  91.1675 148.2367
   4.100   0.8368   0.00886  -0.00620  -0.0835   0.0792   0.5087  92.4026 151.9813
   4.200   0.8451   0.00891  -0.00620  -0.0830   0.0731   0.5331  93.0240 154.4509
   4.300   0.8536   0.00890  -0.00621  -0.0825   0.0693   0.5681  93.3980 157.9711
   4.400   0.8606   0.00897  -0.00619  -0.0818   0.0593   0.6047  94.4240 161.6673
   4.500   0.8684   0.00900  -0.00620  -0.0812   0.0540   0.6396  94.9697 165.1715
   4.600   0.8767   0.00898  -0.00621  -0.0807   0.0518   0.6780  95.1978 169.0263
   4.700   0.8840   0.00900  -0.00622  -0.0800   0.0469   0.7168  95.6986 172.9090
   4.800   0.8914   0.00900  -0.00624  -0.0793   0.0433   0.7555  96.0769 176.7814
   4.900   0.8979   0.00899  -0.00625  -0.0784   0.0387   0.7990  96.5535 181.1219
   5.000   0.9002   0.00886  -0.00628  -0.0766   0.0346   0.8870  96.9821 189.8532
   5.100   0.9678   0.00908  -0.00590  -0.0897   0.0239   0.9868  98.1150 199.7048
   5.200   0.9700   0.00914  -0.00596  -0.0878   0.0235   0.9966  98.1566 200.6664
   5.300   0.9856   0.00924  -0.00596  -0.0890   0.0227   0.9985  98.2389 200.8570
   5.400   1.0046   0.00935  -0.00595  -0.0909   0.0217   0.9997  98.3470 200.9722
   5.500   1.0175   0.00945  -0.00597  -0.0914   0.0206   1.0000  98.4655 201.0000
   5.600   1.0257   0.00955  -0.00602  -0.0909   0.0157   1.0000  99.0058 201.0000
   5.700   1.0345   0.00962  -0.00606  -0.0905   0.0157   1.0000  99.0071 201.0000
   5.800   1.0433   0.00969  -0.00610  -0.0901   0.0157   1.0000  99.0083 201.0000
   5.900   1.0521   0.00976  -0.00615  -0.0897   0.0157   1.0000  99.0095 201.0000
   6.000   1.0609   0.00983  -0.00620  -0.0893   0.0157   1.0000  99.0106 201.0000
   6.100   1.0696   0.00990  -0.00625  -0.0889   0.0157   1.0000  99.0116 201.0000
   6.200   1.0783   0.00997  -0.00630  -0.0884   0.0157   1.0000  99.0125 201.0000
   6.300   1.0870   0.01005  -0.00635  -0.0880   0.0157   1.0000  99.0134 201.0000
   6.400   1.0956   0.01013  -0.00640  -0.0876   0.0156   1.0000  99.0142 201.0000
   6.500   1.1042   0.01020  -0.00645  -0.0871   0.0156   1.0000  99.0148 201.0000
   6.600   1.1127   0.01029  -0.00651  -0.0867   0.0156   1.0000  99.0154 201.0000
   6.700   1.1212   0.01037  -0.00656  -0.0862   0.0156   1.0000  99.0159 201.0000
   6.800   1.1296   0.01045  -0.00662  -0.0858   0.0156   1.0000  99.0163 201.0000
   6.900   1.1380   0.01054  -0.00668  -0.0853   0.0156   1.0000  99.0166 201.0000
   7.000   1.1463   0.01064  -0.00674  -0.0848   0.0156   1.0000  99.0168 201.0000
   7.100   1.1545   0.01073  -0.00679  -0.0843   0.0156   1.0000  99.0169 201.0000
   7.200   1.1626   0.01083  -0.00685  -0.0838   0.0156   1.0000  99.0169 201.0000
   7.300   1.1704   0.01094  -0.00691  -0.0832   0.0156   1.0000  99.0167 201.0000
   7.400   1.1775   0.01104  -0.00697  -0.0825   0.0156   1.0000  99.0165 201.0000
   7.500   1.1841   0.01115  -0.00703  -0.0816   0.0156   1.0000  99.0161 201.0000
   7.600   1.1904   0.01127  -0.00709  -0.0807   0.0156   1.0000  99.0156 201.0000
   7.700   1.1965   0.01139  -0.00715  -0.0797   0.0156   1.0000  99.0149 201.0000
   7.800   1.2024   0.01153  -0.00721  -0.0787   0.0157   1.0000  99.0139 201.0000
   7.900   1.2077   0.01170  -0.00725  -0.0776   0.0157   1.0000  99.0122 201.0000
