
 ===================================================
  XFOIL Version 6.99
  Copyright (C) 2000   Mark Drela, Harold Youngren

  This software comes with ABSOLUTELY NO WARRANTY,
    subject to the GNU General Public License.

  Caveat computor
 ===================================================

 File  xfoil.def  not found

   QUIT    Exit program

  .OPER    Direct operating point(s)
  .MDES    Complex mapping design routine
  .QDES    Surface speed design routine
  .GDES    Geometry design routine

   SAVE f  Write airfoil to labeled coordinate file
   PSAV f  Write airfoil to plain coordinate file
   ISAV f  Write airfoil to ISES coordinate file
   MSAV f  Write airfoil to MSES coordinate file
   REVE    Reverse written-airfoil node ordering
   DELI i  Change written-airfoil file delimiters

   LOAD f  Read buffer airfoil from coordinate file
   NACA i  Set NACA 4,5-digit airfoil and buffer airfoil
   INTE    Set buffer airfoil by interpolating two airfoils
   NORM    Buffer airfoil normalization toggle
   HALF    Halve the number of points in buffer airfoil
   XYCM rr Change CM reference location, currently  0.25000 0.00000

   BEND    Display structural properties of current airfoil

   PCOP    Set current-airfoil panel nodes directly from buffer airfoil points
   PANE    Set current-airfoil panel nodes ( 160 ) based on curvature
  .PPAR    Show/change paneling

  .PLOP    Plotting options

   WDEF f  Write  current-settings file
   RDEF f  Reread current-settings file
   NAME s  Specify new airfoil name
   NINC    Increment name version number

   Z       Zoom    | (available in all menus)
   U       Unzoom  | 

 XFOIL   c>  
 XFOIL   c>  
 Plain airfoil file

Enter airfoil name   s>  
 Number of input coordinate points: 201
 Counterclockwise ordering
 Max thickness =     0.120156  at x =   0.286
 Max camber    =     0.038445  at x =   0.410

  LE  x,y  =  -0.00025   0.00263  |   Chord =   1.00025
  TE  x,y  =   1.00000   0.00000  |

 Current airfoil nodes set from buffer airfoil nodes ( 201 )

 WARNING: Poor input coordinate distribution
          Excessive panel angle   61.8  at i = 101
          Repaneling with PANE and/or PPAR suggested
           (doing GDES,CADD before repaneling _may_
            improve excessively coarse LE spacing

 XFOIL   c>   ...............................................

  G raphics-enable flag:        T
  S ize of plot object          10.00"
  A spect ratio of plot object   0.5500
  P age dimensions              11.00 x  8.50"
  M argins from page edges       0.00",  0.00"
  F ont size (relative)          0.0150
  W indow/screen size fraction   0.8000
  B lowup input method:        Cursor    
  O rientation of plot:        Landscape 
  C olor PostScript output?     T
  L ine colors for top,bottom    8  3

      Option, Value   (or <Return>)    c>   ...............................................

  G raphics-enable flag:        F
  S ize of plot object          10.00"
  A spect ratio of plot object   0.5500
  P age dimensions              11.00 x  8.50"
  M argins from page edges       0.00",  0.00"
  F ont size (relative)          0.0150
  W indow/screen size fraction   0.8000
  B lowup input method:        Cursor    
  O rientation of plot:        Landscape 
  C olor PostScript output?     T
  L ine colors for top,bottom    8  3

      Option, Value   (or <Return>)    c>  
 XFOIL   c>  
.OPERi   c>  
 M  =    0.0000
 Re =  0.3743E+07

.OPERv   c>  
.OPERv   c>  
 Polar  1 newly created for accumulation
 Airfoil archived with polar:                                                 

Enter  polar save filename  OR  <return> for no file   s>  
 New polar save file available

Enter  polar dump filename  OR  <return> for no file   s>  
 New polar dump file available

 Polar accumulation enabled

.OPERva   c>   Calculating unit vorticity distributions ...
 Calculating wake trajectory ...
 Calculating source influence matrix ...

 Solving BL system ...

 Initializing BL ...
    side            1  ...
 MRCHUE: Inverse mode at  45     Hk =   3.495
 MRCHUE: Inverse mode at 101     Hk =   2.500
    side            2  ...
 MRCHUE: Inverse mode at   4     Hk =  15.672
 MRCHUE: Inverse mode at   5     Hk =   2.500

 Side 1  free  transition at x/c =  0.4361   45
 Side 2  free  transition at x/c =  0.0246    4

   1   rms: 0.1774E+00   max: -.2182E+01   D at    5  2   RLX: 0.229
       a = -2.000      CL =  0.2644
      Cm = -0.1036     CD =  0.00643   =>   CDf =  0.00579    CDp =  0.00064

 Side 1  free  transition at x/c =  0.4395   45
 Side 2  free  transition at x/c =  0.0456    6

   2   rms: 0.8415E-01   max: 0.9589E+00   D at    6  2   RLX: 0.567
       a = -2.000      CL =  0.2417
      Cm = -0.0983     CD =  0.00660   =>   CDf =  0.00583    CDp =  0.00077

 Side 1  free  transition at x/c =  0.4729   49
 Side 2  free  transition at x/c =  0.0443    6

   3   rms: 0.1125E+00   max: -.1810E+01   D at    6  2   RLX: 0.276
       a = -2.000      CL =  0.2439
      Cm = -0.0978     CD =  0.00652   =>   CDf =  0.00570    CDp =  0.00082

 MRCHDU: Convergence failed at   6  side 2    Res =  0.1737E+01
 Side 1  free  transition at x/c =  0.4796   49
 Side 2  free  transition at x/c =  0.0573    8

   4   rms: 0.1079E+00   max: -.2820E+01   C at   49  1   RLX: 0.177
       a = -2.000      CL =  0.2402
      Cm = -0.0986     CD =  0.00648   =>   CDf =  0.00561    CDp =  0.00087

 Side 1  free  transition at x/c =  0.4814   50
 Side 2  free  transition at x/c =  0.0564    7

   5   rms: 0.5202E-01   max: -.7964E+00   C at   50  1   RLX: 0.628
       a = -2.000      CL =  0.2432
      Cm = -0.0982     CD =  0.00653   =>   CDf =  0.00561    CDp =  0.00091

 Side 1  free  transition at x/c =  0.4955   51
 Side 2  free  transition at x/c =  0.0443    6

   6   rms: 0.1115E+00   max: 0.3120E+01   C at    6  2   RLX: 0.481
       a = -2.000      CL =  0.2447
      Cm = -0.0983     CD =  0.00664   =>   CDf =  0.00560    CDp =  0.00105

 Side 1  free  transition at x/c =  0.4993   51
 Side 2  free  transition at x/c =  0.0349    5

   7   rms: 0.3345E-01   max: 0.9561E+00   C at    5  2
       a = -2.000      CL =  0.2459
      Cm = -0.0982     CD =  0.00670   =>   CDf =  0.00562    CDp =  0.00107

 Side 1  free  transition at x/c =  0.5096   52
 Side 2  free  transition at x/c =  0.0328    5

   8   rms: 0.3224E-01   max: 0.8551E+00   C at   52  1
       a = -2.000      CL =  0.2462
      Cm = -0.0983     CD =  0.00670   =>   CDf =  0.00559    CDp =  0.00110

 Side 1  free  transition at x/c =  0.5034   52
 Side 2  free  transition at x/c =  0.0323    5

   9   rms: 0.9649E-03   max: 0.2174E-01   D at   52  1
       a = -2.000      CL =  0.2462
      Cm = -0.0983     CD =  0.00670   =>   CDf =  0.00563    CDp =  0.00107

 Side 1  free  transition at x/c =  0.5036   52
 Side 2  free  transition at x/c =  0.0323    5

  10   rms: 0.1186E-04   max: 0.2303E-03   C at   52  1
       a = -2.000      CL =  0.2462
      Cm = -0.0983     CD =  0.00670   =>   CDf =  0.00563    CDp =  0.00107
      9.000    2.9877   0.006695   0.000000   0.000000   0.000000    0.5036     #

 Point added to stored polar  1
 Point written to save file  /home/nesd/tmp/dynamicas/python/users/a/ASTRO/r_
 Point written to dump file /home/nesd/tmp/dynamicas/python/users/a/ASTRO/r_
 Calculating wake trajectory ...
 Calculating source influence matrix ...

 Solving BL system ...

 Side 1  free  transition at x/c =  0.5036   52
 Side 2  free  transition at x/c =  0.0323    5

   1   rms: 0.1648E-01   max: 0.2559E+00   C at   52  1
       a = -1.900      CL =  0.2566
      Cm = -0.0981     CD =  0.00670   =>   CDf =  0.00563    CDp =  0.00107

 Side 1  free  transition at x/c =  0.5004   51
 Side 2  free  transition at x/c =  0.0335    5

   2   rms: 0.2014E-02   max: 0.4406E-01   C at    5  2
       a = -1.900      CL =  0.2568
      Cm = -0.0982     CD =  0.00669   =>   CDf =  0.00563    CDp =  0.00106

 Side 1  free  transition at x/c =  0.5001   51
 Side 2  free  transition at x/c =  0.0333    5

   3   rms: 0.3609E-04   max: 0.8905E-03   C at    5  2
       a = -1.900      CL =  0.2568
      Cm = -0.0982     CD =  0.00669   =>   CDf =  0.00563    CDp =  0.00106
      9.000    2.9939   0.006687   0.000000   0.000000   0.000000    0.5001     #

 Point added to stored polar  1
 Point written to save file  /home/nesd/tmp/dynamicas/python/users/a/ASTRO/r_
 Point written to dump file /home/nesd/tmp/dynamicas/python/users/a/ASTRO/r_
 Calculating wake trajectory ...
 Calculating source influence matrix ...

 Solving BL system ...

 Side 1  free  transition at x/c =  0.5001   51
 Side 2  free  transition at x/c =  0.0333    5

   1   rms: 0.1305E-01   max: -.2086E+00   C at    5  2
       a = -1.800      CL =  0.2676
      Cm = -0.0981     CD =  0.00667   =>   CDf =  0.00563    CDp =  0.00104

 Side 1  free  transition at x/c =  0.4954   51
 Side 2  free  transition at x/c =  0.0344    5

   2   rms: 0.1935E-02   max: 0.4086E-01   C at    5  2
       a = -1.800      CL =  0.2675
      Cm = -0.0981     CD =  0.00668   =>   CDf =  0.00563    CDp =  0.00105

 Side 1  free  transition at x/c =  0.4960   51
 Side 2  free  transition at x/c =  0.0342    5

   3   rms: 0.2975E-04   max: -.6119E-03   C at   51  1
       a = -1.800      CL =  0.2675
      Cm = -0.0981     CD =  0.00668   =>   CDf =  0.00563    CDp =  0.00105
      9.000    3.0004   0.006675   0.000000   0.000000   0.000000    0.4960     #

 Point added to stored polar  1
 Point written to save file  /home/nesd/tmp/dynamicas/python/users/a/ASTRO/r_
 Point written to dump file /home/nesd/tmp/dynamicas/python/users/a/ASTRO/r_
 Calculating wake trajectory ...
 Calculating source influence matrix ...

 Solving BL system ...

 Side 1  free  transition at x/c =  0.4960   51
 Side 2  free  transition at x/c =  0.0342    5

   1   rms: 0.1701E-01   max: -.3012E+00   C at    5  2
       a = -1.700      CL =  0.2782
      Cm = -0.0980     CD =  0.00667   =>   CDf =  0.00563    CDp =  0.00105

 Side 1  free  transition at x/c =  0.4896   50
 Side 2  free  transition at x/c =  0.0351    5

   2   rms: 0.3028E-02   max: -.7349E-01   C at   50  1
       a = -1.700      CL =  0.2780
      Cm = -0.0980     CD =  0.00668   =>   CDf =  0.00564    CDp =  0.00104

 Side 1  free  transition at x/c =  0.4904   50
 Side 2  free  transition at x/c =  0.0351    5

   3   rms: 0.2954E-04   max: 0.7329E-03   C at   50  1
       a = -1.700      CL =  0.2780
      Cm = -0.0980     CD =  0.00668   =>   CDf =  0.00564    CDp =  0.00104
      9.000    3.0028   0.006683   0.000000   0.000000   0.000000    0.4904     #

 Point added to stored polar  1
 Point written to save file  /home/nesd/tmp/dynamicas/python/users/a/ASTRO/r_
 Point written to dump file /home/nesd/tmp/dynamicas/python/users/a/ASTRO/r_
 Calculating wake trajectory ...
 Calculating source influence matrix ...

 Solving BL system ...

 Side 1  free  transition at x/c =  0.4904   50
 Side 2  free  transition at x/c =  0.0351    5

   1   rms: 0.2318E-01   max: 0.4380E+00   C at   50  1
       a = -1.600      CL =  0.2885
      Cm = -0.0979     CD =  0.00668   =>   CDf =  0.00564    CDp =  0.00105

 Side 1  free  transition at x/c =  0.4835   50
 Side 2  free  transition at x/c =  0.0363    6

   2   rms: 0.9932E-02   max: -.2216E+00   D at    5  2
       a = -1.600      CL =  0.2884
      Cm = -0.0979     CD =  0.00668   =>   CDf =  0.00565    CDp =  0.00103

 MRCHDU: Convergence failed at   6  side 2    Res =  0.8604E-01
 Side 1  free  transition at x/c =  0.4845   50
 Side 2  free  transition at x/c =  0.0533    7

   3   rms: 0.8620E-02   max: 0.1989E+00   C at    7  2
       a = -1.600      CL =  0.2878
      Cm = -0.0978     CD =  0.00661   =>   CDf =  0.00559    CDp =  0.00102

 Side 1  free  transition at x/c =  0.4847   50
 Side 2  free  transition at x/c =  0.0398    6

   4   rms: 0.1090E-01   max: -.1506E+00   C at    6  2
       a = -1.600      CL =  0.2881
      Cm = -0.0978     CD =  0.00665   =>   CDf =  0.00564    CDp =  0.00101

 MRCHDU: Convergence failed at   6  side 2    Res =  0.8187E-01
 Side 1  free  transition at x/c =  0.4846   50
 Side 2  free  transition at x/c =  0.0383    6

   5   rms: 0.1203E-01   max: 0.3237E+00   C at    6  2
       a = -1.600      CL =  0.2882
      Cm = -0.0978     CD =  0.00666   =>   CDf =  0.00562    CDp =  0.00104

 Side 1  free  transition at x/c =  0.4846   50
 Side 2  free  transition at x/c =  0.0438    6

   6   rms: 0.8319E-03   max: -.2217E-01   C at    6  2
       a = -1.600      CL =  0.2881
      Cm = -0.0978     CD =  0.00665   =>   CDf =  0.00562    CDp =  0.00103

 Side 1  free  transition at x/c =  0.4846   50
 Side 2  free  transition at x/c =  0.0439    6

   7   rms: 0.5692E-05   max: 0.1002E-03   D at    6  2
       a = -1.600      CL =  0.2881
      Cm = -0.0978     CD =  0.00665   =>   CDf =  0.00562    CDp =  0.00103
      9.000    3.0024   0.006650   0.000000   0.000000   0.000000    0.4846     #

 Point added to stored polar  1
 Point written to save file  /home/nesd/tmp/dynamicas/python/users/a/ASTRO/r_
 Point written to dump file /home/nesd/tmp/dynamicas/python/users/a/ASTRO/r_
 Calculating wake trajectory ...
 Calculating source influence matrix ...

 Solving BL system ...

 Side 1  free  transition at x/c =  0.4846   50
 Side 2  free  transition at x/c =  0.0439    6

   1   rms: 0.2457E-01   max: -.4409E+00   C at    6  2
       a = -1.500      CL =  0.2984
      Cm = -0.0977     CD =  0.00665   =>   CDf =  0.00562    CDp =  0.00103

 Side 1  free  transition at x/c =  0.4793   49
 Side 2  free  transition at x/c =  0.0457    6

   2   rms: 0.1518E-02   max: 0.4310E-01   C at    6  2
       a = -1.500      CL =  0.2985
      Cm = -0.0977     CD =  0.00666   =>   CDf =  0.00563    CDp =  0.00103

 Side 1  free  transition at x/c =  0.4794   49
 Side 2  free  transition at x/c =  0.0455    6

   3   rms: 0.4200E-05   max: 0.1109E-03   C at    6  2
       a = -1.500      CL =  0.2985
      Cm = -0.0977     CD =  0.00666   =>   CDf =  0.00563    CDp =  0.00103
      9.000    2.9992   0.006659   0.000000   0.000000   0.000000    0.4794     #

 Point added to stored polar  1
 Point written to save file  /home/nesd/tmp/dynamicas/python/users/a/ASTRO/r_
 Point written to dump file /home/nesd/tmp/dynamicas/python/users/a/ASTRO/r_
 Calculating wake trajectory ...
 Calculating source influence matrix ...

 Solving BL system ...

 Side 1  free  transition at x/c =  0.4794   49
 Side 2  free  transition at x/c =  0.0455    6

   1   rms: 0.2875E-01   max: -.6618E+00   C at    6  2   RLX: 0.755
       a = -1.400      CL =  0.3065
      Cm = -0.0976     CD =  0.00666   =>   CDf =  0.00563    CDp =  0.00102

 Side 1  free  transition at x/c =  0.4756   49
 Side 2  free  transition at x/c =  0.0513    7

   2   rms: 0.3844E-02   max: 0.6038E-01   C at   49  1
       a = -1.400      CL =  0.3089
      Cm = -0.0976     CD =  0.00665   =>   CDf =  0.00563    CDp =  0.00102

 Side 1  free  transition at x/c =  0.4748   49
 Side 2  free  transition at x/c =  0.0505    7

   3   rms: 0.7706E-04   max: -.1732E-02   C at   49  1
       a = -1.400      CL =  0.3089
      Cm = -0.0976     CD =  0.00665   =>   CDf =  0.00563    CDp =  0.00102
      9.000    3.0061   0.006648   0.000000   0.000000   0.000000    0.4748     #

 Point added to stored polar  1
 Point written to save file  /home/nesd/tmp/dynamicas/python/users/a/ASTRO/r_
 Point written to dump file /home/nesd/tmp/dynamicas/python/users/a/ASTRO/r_
 Calculating wake trajectory ...
 Calculating source influence matrix ...

 Solving BL system ...

 Side 1  free  transition at x/c =  0.4748   49
 Side 2  free  transition at x/c =  0.0505    7

   1   rms: 0.2359E-01   max: 0.3263E+00   C at   49  1
       a = -1.300      CL =  0.3192
      Cm = -0.0974     CD =  0.00663   =>   CDf =  0.00563    CDp =  0.00100

 Side 1  free  transition at x/c =  0.4704   48
 Side 2  free  transition at x/c =  0.0539    7

   2   rms: 0.6925E-03   max: -.1159E-01   C at   48  1
       a = -1.300      CL =  0.3193
      Cm = -0.0974     CD =  0.00665   =>   CDf =  0.00564    CDp =  0.00101

 Side 1  free  transition at x/c =  0.4705   48
 Side 2  free  transition at x/c =  0.0539    7

   3   rms: 0.2218E-05   max: 0.5191E-04   C at   48  1
       a = -1.300      CL =  0.3193
      Cm = -0.0974     CD =  0.00665   =>   CDf =  0.00564    CDp =  0.00101
      9.000    3.0123   0.006649   0.000000   0.000000   0.000000    0.4705     #

 Point added to stored polar  1
 Point written to save file  /home/nesd/tmp/dynamicas/python/users/a/ASTRO/r_
 Point written to dump file /home/nesd/tmp/dynamicas/python/users/a/ASTRO/r_
 Calculating wake trajectory ...
 Calculating source influence matrix ...

 Solving BL system ...

 Side 1  free  transition at x/c =  0.4705   48
 Side 2  free  transition at x/c =  0.0539    7

   1   rms: 0.1495E-01   max: 0.2433E+00   C at   48  1
       a = -1.200      CL =  0.3300
      Cm = -0.0974     CD =  0.00664   =>   CDf =  0.00564    CDp =  0.00101

 Side 1  free  transition at x/c =  0.4664   48
 Side 2  free  transition at x/c =  0.0553    7

   2   rms: 0.1068E-02   max: -.2618E-01   C at   48  1
       a = -1.200      CL =  0.3299
      Cm = -0.0974     CD =  0.00665   =>   CDf =  0.00564    CDp =  0.00101

 Side 1  free  transition at x/c =  0.4668   48
 Side 2  free  transition at x/c =  0.0553    7

   3   rms: 0.9126E-05   max: -.1890E-03   C at   48  1
       a = -1.200      CL =  0.3299
      Cm = -0.0974     CD =  0.00665   =>   CDf =  0.00564    CDp =  0.00101
      9.000    3.0186   0.006649   0.000000   0.000000   0.000000    0.4668     #

 Point added to stored polar  1
 Point written to save file  /home/nesd/tmp/dynamicas/python/users/a/ASTRO/r_
 Point written to dump file /home/nesd/tmp/dynamicas/python/users/a/ASTRO/r_
 Calculating wake trajectory ...
 Calculating source influence matrix ...

 Solving BL system ...

 Side 1  free  transition at x/c =  0.4668   48
 Side 2  free  transition at x/c =  0.0553    7

   1   rms: 0.1473E-01   max: 0.2703E+00   C at   48  1
       a = -1.100      CL =  0.3406
      Cm = -0.0973     CD =  0.00665   =>   CDf =  0.00564    CDp =  0.00101

 Side 1  free  transition at x/c =  0.4620   48
 Side 2  free  transition at x/c =  0.0562    7

   2   rms: 0.1556E-02   max: 0.2711E-01   D at   48  1
       a = -1.100      CL =  0.3405
      Cm = -0.0973     CD =  0.00666   =>   CDf =  0.00565    CDp =  0.00101

 Side 1  free  transition at x/c =  0.4626   48
 Side 2  free  transition at x/c =  0.0561    7

   3   rms: 0.2972E-04   max: 0.5696E-03   C at   48  1
       a = -1.100      CL =  0.3405
      Cm = -0.0973     CD =  0.00666   =>   CDf =  0.00565    CDp =  0.00101
      9.000    3.0227   0.006660   0.000000   0.000000   0.000000    0.4626     #

 Point added to stored polar  1
 Point written to save file  /home/nesd/tmp/dynamicas/python/users/a/ASTRO/r_
 Point written to dump file /home/nesd/tmp/dynamicas/python/users/a/ASTRO/r_
 Calculating wake trajectory ...
 Calculating source influence matrix ...

 Solving BL system ...

 Side 1  free  transition at x/c =  0.4625   48
 Side 2  free  transition at x/c =  0.0561    7

   1   rms: 0.1478E-01   max: 0.2152E+00   C at   48  1
       a = -1.000      CL =  0.3509
      Cm = -0.0972     CD =  0.00668   =>   CDf =  0.00565    CDp =  0.00103

 Side 1  free  transition at x/c =  0.4591   47
 Side 2  free  transition at x/c =  0.0612    8

   2   rms: 0.1192E-01   max: 0.2008E+00   C at    8  2
       a = -1.000      CL =  0.3511
      Cm = -0.0972     CD =  0.00667   =>   CDf =  0.00564    CDp =  0.00103

 Side 1  free  transition at x/c =  0.4588   47
 Side 2  free  transition at x/c =  0.0580    8

   3   rms: 0.4554E-03   max: -.9421E-02   D at    8  2
       a = -1.000      CL =  0.3511
      Cm = -0.0972     CD =  0.00667   =>   CDf =  0.00566    CDp =  0.00101

 Side 1  free  transition at x/c =  0.4588   47
 Side 2  free  transition at x/c =  0.0578    8

   4   rms: 0.3655E-05   max: -.7828E-04   D at    8  2
       a = -1.000      CL =  0.3511
      Cm = -0.0972     CD =  0.00667   =>   CDf =  0.00566    CDp =  0.00101
      9.000    3.0267   0.006666   0.000000   0.000000   0.000000    0.4588     #

 Point added to stored polar  1
 Point written to save file  /home/nesd/tmp/dynamicas/python/users/a/ASTRO/r_
 Point written to dump file /home/nesd/tmp/dynamicas/python/users/a/ASTRO/r_
 Calculating wake trajectory ...
 Calculating source influence matrix ...

 Solving BL system ...

 Side 1  free  transition at x/c =  0.4588   47
 Side 2  free  transition at x/c =  0.0578    8

   1   rms: 0.1302E-01   max: 0.2180E+00   C at   47  1
       a = -0.900      CL =  0.3618
      Cm = -0.0971     CD =  0.00666   =>   CDf =  0.00566    CDp =  0.00101

 Side 1  free  transition at x/c =  0.4530   47
 Side 2  free  transition at x/c =  0.0606    8

   2   rms: 0.2655E-02   max: -.5670E-01   C at   47  1
       a = -0.900      CL =  0.3616
      Cm = -0.0971     CD =  0.00667   =>   CDf =  0.00566    CDp =  0.00100

 Side 1  free  transition at x/c =  0.4539   47
 Side 2  free  transition at x/c =  0.0604    8

   3   rms: 0.4450E-04   max: -.1011E-02   C at   47  1
       a = -0.900      CL =  0.3616
      Cm = -0.0971     CD =  0.00667   =>   CDf =  0.00566    CDp =  0.00101
      9.000    3.0276   0.006666   0.000000   0.000000   0.000000    0.4539     #

 Point added to stored polar  1
 Point written to save file  /home/nesd/tmp/dynamicas/python/users/a/ASTRO/r_
 Point written to dump file /home/nesd/tmp/dynamicas/python/users/a/ASTRO/r_
 Calculating wake trajectory ...
 Calculating source influence matrix ...

 Solving BL system ...

 Side 1  free  transition at x/c =  0.4539   47
 Side 2  free  transition at x/c =  0.0604    8

   1   rms: 0.1809E-01   max: 0.2999E+00   C at   47  1
       a = -0.800      CL =  0.3720
      Cm = -0.0970     CD =  0.00667   =>   CDf =  0.00566    CDp =  0.00101

 Side 1  free  transition at x/c =  0.4488   46
 Side 2  free  transition at x/c =  0.0627    8

   2   rms: 0.3984E-03   max: -.6811E-02   C at   46  1
       a = -0.800      CL =  0.3720
      Cm = -0.0970     CD =  0.00667   =>   CDf =  0.00567    CDp =  0.00101

 Side 1  free  transition at x/c =  0.4490   46
 Side 2  free  transition at x/c =  0.0627    8

   3   rms: 0.3596E-05   max: -.9518E-04   C at   46  1
       a = -0.800      CL =  0.3720
      Cm = -0.0970     CD =  0.00667   =>   CDf =  0.00567    CDp =  0.00101
      9.000    3.0294   0.006674   0.000000   0.000000   0.000000    0.4490     #

 Point added to stored polar  1
 Point written to save file  /home/nesd/tmp/dynamicas/python/users/a/ASTRO/r_
 Point written to dump file /home/nesd/tmp/dynamicas/python/users/a/ASTRO/r_
 Calculating wake trajectory ...
 Calculating source influence matrix ...

 Solving BL system ...

 Side 1  free  transition at x/c =  0.4490   46
 Side 2  free  transition at x/c =  0.0627    8

   1   rms: 0.1886E-01   max: 0.3828E+00   C at   46  1
       a = -0.700      CL =  0.3825
      Cm = -0.0969     CD =  0.00668   =>   CDf =  0.00567    CDp =  0.00101

 Side 1  free  transition at x/c =  0.4432   46
 Side 2  free  transition at x/c =  0.0647    8

   2   rms: 0.2213E-02   max: -.5014E-01   C at   46  1
       a = -0.700      CL =  0.3825
      Cm = -0.0969     CD =  0.00668   =>   CDf =  0.00568    CDp =  0.00101

 Side 1  free  transition at x/c =  0.4439   46
 Side 2  free  transition at x/c =  0.0647    8

   3   rms: 0.2129E-04   max: -.4354E-03   C at   46  1
       a = -0.700      CL =  0.3825
      Cm = -0.0969     CD =  0.00668   =>   CDf =  0.00567    CDp =  0.00101
      9.000    3.0291   0.006682   0.000000   0.000000   0.000000    0.4439     #

 Point added to stored polar  1
 Point written to save file  /home/nesd/tmp/dynamicas/python/users/a/ASTRO/r_
 Point written to dump file /home/nesd/tmp/dynamicas/python/users/a/ASTRO/r_
 Calculating wake trajectory ...
 Calculating source influence matrix ...

 Solving BL system ...

 Side 1  free  transition at x/c =  0.4439   46
 Side 2  free  transition at x/c =  0.0647    8

   1   rms: 0.2068E-01   max: -.3537E+00   C at    8  2
       a = -0.600      CL =  0.3929
      Cm = -0.0967     CD =  0.00670   =>   CDf =  0.00567    CDp =  0.00102

 Side 1  free  transition at x/c =  0.4394   45
 Side 2  free  transition at x/c =  0.0667    9

   2   rms: 0.3381E-03   max: -.4014E-02   C at   45  1
       a = -0.600      CL =  0.3929
      Cm = -0.0967     CD =  0.00669   =>   CDf =  0.00568    CDp =  0.00101

 Side 1  free  transition at x/c =  0.4395   45
 Side 2  free  transition at x/c =  0.0668    9

   3   rms: 0.1986E-05   max: -.4095E-04   D at    9  2
       a = -0.600      CL =  0.3929
      Cm = -0.0967     CD =  0.00669   =>   CDf =  0.00568    CDp =  0.00101
      9.000    3.0257   0.006695   0.000000   0.000000   0.000000    0.4395     #

 Point added to stored polar  1
 Point written to save file  /home/nesd/tmp/dynamicas/python/users/a/ASTRO/r_
 Point written to dump file /home/nesd/tmp/dynamicas/python/users/a/ASTRO/r_
 Calculating wake trajectory ...
 Calculating source influence matrix ...

 Solving BL system ...

 Side 1  free  transition at x/c =  0.4395   45
 Side 2  free  transition at x/c =  0.0668    9

   1   rms: 0.1705E-01   max: 0.3530E+00   C at   45  1
       a = -0.500      CL =  0.4035
      Cm = -0.0967     CD =  0.00669   =>   CDf =  0.00568    CDp =  0.00101

 Side 1  free  transition at x/c =  0.4355   45
 Side 2  free  transition at x/c =  0.0731    9

   2   rms: 0.3299E-02   max: 0.7681E-01   C at    9  2
       a = -0.500      CL =  0.4033
      Cm = -0.0966     CD =  0.00669   =>   CDf =  0.00567    CDp =  0.00101

 Side 1  free  transition at x/c =  0.4359   45
 Side 2  free  transition at x/c =  0.0722    9

   3   rms: 0.6544E-05   max: -.1428E-03   C at   45  1
       a = -0.500      CL =  0.4033
      Cm = -0.0966     CD =  0.00669   =>   CDf =  0.00568    CDp =  0.00101
      9.000    3.0205   0.006686   0.000000   0.000000   0.000000    0.4359     #

 Point added to stored polar  1
 Point written to save file  /home/nesd/tmp/dynamicas/python/users/a/ASTRO/r_
 Point written to dump file /home/nesd/tmp/dynamicas/python/users/a/ASTRO/r_
 Calculating wake trajectory ...
 Calculating source influence matrix ...

 Solving BL system ...

 Side 1  free  transition at x/c =  0.4359   45
 Side 2  free  transition at x/c =  0.0722    9

   1   rms: 0.2309E-01   max: -.4069E+00   C at    9  2
       a = -0.400      CL =  0.4137
      Cm = -0.0965     CD =  0.00668   =>   CDf =  0.00568    CDp =  0.00100

 Side 1  free  transition at x/c =  0.4317   45
 Side 2  free  transition at x/c =  0.0751    9

   2   rms: 0.1454E-02   max: 0.2227E-01   D at   45  1
       a = -0.400      CL =  0.4137
      Cm = -0.0965     CD =  0.00670   =>   CDf =  0.00568    CDp =  0.00101

 Side 1  free  transition at x/c =  0.4320   45
 Side 2  free  transition at x/c =  0.0753    9

   3   rms: 0.2963E-04   max: 0.5124E-03   C at   45  1
       a = -0.400      CL =  0.4137
      Cm = -0.0965     CD =  0.00670   =>   CDf =  0.00568    CDp =  0.00101
      9.000    3.0205   0.006696   0.000000   0.000000   0.000000    0.4320     #

 Point added to stored polar  1
 Point written to save file  /home/nesd/tmp/dynamicas/python/users/a/ASTRO/r_
 Point written to dump file /home/nesd/tmp/dynamicas/python/users/a/ASTRO/r_
 Calculating wake trajectory ...
 Calculating source influence matrix ...

 Solving BL system ...

 Side 1  free  transition at x/c =  0.4320   45
 Side 2  free  transition at x/c =  0.0753    9

   1   rms: 0.1787E-01   max: -.3285E+00   C at    9  2
       a = -0.300      CL =  0.4241
      Cm = -0.0964     CD =  0.00671   =>   CDf =  0.00568    CDp =  0.00103

 Side 1  free  transition at x/c =  0.4289   44
 Side 2  free  transition at x/c =  0.0771   10

   2   rms: 0.1217E-02   max: 0.2417E-01   C at   44  1
       a = -0.300      CL =  0.4243
      Cm = -0.0964     CD =  0.00670   =>   CDf =  0.00569    CDp =  0.00102

 Side 1  free  transition at x/c =  0.4287   44
 Side 2  free  transition at x/c =  0.0774   10

   3   rms: 0.1379E-04   max: 0.2527E-03   C at   44  1
       a = -0.300      CL =  0.4243
      Cm = -0.0964     CD =  0.00670   =>   CDf =  0.00569    CDp =  0.00102
      9.000    3.0307   0.006704   0.000000   0.000000   0.000000    0.4287     #

 Point added to stored polar  1
 Point written to save file  /home/nesd/tmp/dynamicas/python/users/a/ASTRO/r_
 Point written to dump file /home/nesd/tmp/dynamicas/python/users/a/ASTRO/r_
 Calculating wake trajectory ...
 Calculating source influence matrix ...

 Solving BL system ...

 Side 1  free  transition at x/c =  0.4287   44
 Side 2  free  transition at x/c =  0.0774   10

   1   rms: 0.1341E-01   max: 0.2182E+00   C at   44  1
       a = -0.200      CL =  0.4350
      Cm = -0.0964     CD =  0.00670   =>   CDf =  0.00569    CDp =  0.00102

 Side 1  free  transition at x/c =  0.4242   44
 Side 2  free  transition at x/c =  0.0819   10

   2   rms: 0.2488E-02   max: 0.3917E-01   C at   10  2
       a = -0.200      CL =  0.4348
      Cm = -0.0963     CD =  0.00670   =>   CDf =  0.00568    CDp =  0.00102

 Side 1  free  transition at x/c =  0.4247   44
 Side 2  free  transition at x/c =  0.0814   10

   3   rms: 0.1821E-04   max: -.3927E-03   C at   44  1
       a = -0.200      CL =  0.4348
      Cm = -0.0963     CD =  0.00670   =>   CDf =  0.00568    CDp =  0.00102
      9.000    3.0410   0.006704   0.000000   0.000000   0.000000    0.4247     #

 Point added to stored polar  1
 Point written to save file  /home/nesd/tmp/dynamicas/python/users/a/ASTRO/r_
 Point written to dump file /home/nesd/tmp/dynamicas/python/users/a/ASTRO/r_
 Calculating wake trajectory ...
 Calculating source influence matrix ...

 Solving BL system ...

 Side 1  free  transition at x/c =  0.4247   44
 Side 2  free  transition at x/c =  0.0814   10

   1   rms: 0.1985E-01   max: 0.2742E+00   C at   44  1
       a = -0.100      CL =  0.4451
      Cm = -0.0962     CD =  0.00671   =>   CDf =  0.00568    CDp =  0.00103

 Side 1  free  transition at x/c =  0.4198   43
 Side 2  free  transition at x/c =  0.0846   10

   2   rms: 0.1257E-02   max: 0.2328E-01   C at   10  2
       a = -0.100      CL =  0.4450
      Cm = -0.0962     CD =  0.00672   =>   CDf =  0.00569    CDp =  0.00103

 Side 1  free  transition at x/c =  0.4200   43
 Side 2  free  transition at x/c =  0.0846   10

   3   rms: 0.5121E-04   max: 0.1422E-02   C at   10  2
       a = -0.100      CL =  0.4450
      Cm = -0.0962     CD =  0.00672   =>   CDf =  0.00569    CDp =  0.00103
      9.000    3.0513   0.006722   0.000000   0.000000   0.000000    0.4200     #

 Point added to stored polar  1
 Point written to save file  /home/nesd/tmp/dynamicas/python/users/a/ASTRO/r_
 Point written to dump file /home/nesd/tmp/dynamicas/python/users/a/ASTRO/r_
 Calculating wake trajectory ...
 Calculating source influence matrix ...

 Solving BL system ...

 Side 1  free  transition at x/c =  0.4200   43
 Side 2  free  transition at x/c =  0.0846   10

   1   rms: 0.1957E-01   max: -.4442E+00   C at   10  2
       a =  0.000      CL =  0.4557
      Cm = -0.0961     CD =  0.00672   =>   CDf =  0.00569    CDp =  0.00103

 Side 1  free  transition at x/c =  0.4137   43
 Side 2  free  transition at x/c =  0.0885   11

   2   rms: 0.2869E-02   max: -.6340E-01   C at   43  1
       a =  0.000      CL =  0.4555
      Cm = -0.0961     CD =  0.00672   =>   CDf =  0.00569    CDp =  0.00103

 Side 1  free  transition at x/c =  0.4147   43
 Side 2  free  transition at x/c =  0.0887   11

   3   rms: 0.8428E-04   max: -.1498E-02   C at   43  1
       a =  0.000      CL =  0.4555
      Cm = -0.0961     CD =  0.00673   =>   CDf =  0.00569    CDp =  0.00104
      9.000    3.0618   0.006726   0.000000   0.000000   0.000000    0.4147     #

 Point added to stored polar  1
 Point written to save file  /home/nesd/tmp/dynamicas/python/users/a/ASTRO/r_
 Point written to dump file /home/nesd/tmp/dynamicas/python/users/a/ASTRO/r_
 Calculating wake trajectory ...
 Calculating source influence matrix ...

 Solving BL system ...

 Side 1  free  transition at x/c =  0.4147   43
 Side 2  free  transition at x/c =  0.0887   11

   1   rms: 0.2498E-01   max: 0.3906E+00   C at   43  1
       a =  0.100      CL =  0.4656
      Cm = -0.0959     CD =  0.00673   =>   CDf =  0.00569    CDp =  0.00104

 Side 1  free  transition at x/c =  0.4071   42
 Side 2  free  transition at x/c =  0.0945   11

   2   rms: 0.1605E-02   max: -.4069E-01   C at   42  1
       a =  0.100      CL =  0.4655
      Cm = -0.0959     CD =  0.00674   =>   CDf =  0.00570    CDp =  0.00104

 Side 1  free  transition at x/c =  0.4076   42
 Side 2  free  transition at x/c =  0.0946   11

   3   rms: 0.1907E-04   max: -.5110E-03   C at   42  1
       a =  0.100      CL =  0.4655
      Cm = -0.0959     CD =  0.00674   =>   CDf =  0.00570    CDp =  0.00104
      9.000    3.0723   0.006744   0.000000   0.000000   0.000000    0.4076     #

 Point added to stored polar  1
 Point written to save file  /home/nesd/tmp/dynamicas/python/users/a/ASTRO/r_
 Point written to dump file /home/nesd/tmp/dynamicas/python/users/a/ASTRO/r_
 Calculating wake trajectory ...
 Calculating source influence matrix ...

 Solving BL system ...

 Side 1  free  transition at x/c =  0.4076   42
 Side 2  free  transition at x/c =  0.0946   11

   1   rms: 0.2920E-01   max: 0.5883E+00   C at   42  1
       a =  0.200      CL =  0.4757
      Cm = -0.0957     CD =  0.00676   =>   CDf =  0.00570    CDp =  0.00106

 Side 1  free  transition at x/c =  0.3984   41
 Side 2  free  transition at x/c =  0.0975   12

   2   rms: 0.4154E-02   max: -.1082E+00   C at   41  1
       a =  0.200      CL =  0.4755
      Cm = -0.0957     CD =  0.00678   =>   CDf =  0.00573    CDp =  0.00105

 Side 1  free  transition at x/c =  0.3993   41
 Side 2  free  transition at x/c =  0.0981   12

   3   rms: 0.1006E-03   max: 0.1992E-02   C at   41  1
       a =  0.200      CL =  0.4755
      Cm = -0.0957     CD =  0.00678   =>   CDf =  0.00572    CDp =  0.00106

 Side 1  free  transition at x/c =  0.3993   41
 Side 2  free  transition at x/c =  0.0981   12

   4   rms: 0.2506E-06   max: -.2326E-05   D at   12  2
       a =  0.200      CL =  0.4755
      Cm = -0.0957     CD =  0.00678   =>   CDf =  0.00572    CDp =  0.00106
      9.000    3.0829   0.006781   0.000000   0.000000   0.000000    0.3993     #

 Point added to stored polar  1
 Point written to save file  /home/nesd/tmp/dynamicas/python/users/a/ASTRO/r_
 Point written to dump file /home/nesd/tmp/dynamicas/python/users/a/ASTRO/r_
 Calculating wake trajectory ...
 Calculating source influence matrix ...

 Solving BL system ...

 Side 1  free  transition at x/c =  0.3993   41
 Side 2  free  transition at x/c =  0.0981   12

   1   rms: 0.2896E-01   max: 0.6895E+00   C at   41  1
       a =  0.300      CL =  0.4856
      Cm = -0.0955     CD =  0.00680   =>   CDf =  0.00572    CDp =  0.00107

 Side 1  free  transition at x/c =  0.3919   41
 Side 2  free  transition at x/c =  0.1043   12

   2   rms: 0.2955E-02   max: 0.4724E-01   C at   12  2
       a =  0.300      CL =  0.4855
      Cm = -0.0955     CD =  0.00680   =>   CDf =  0.00573    CDp =  0.00106

 Side 1  free  transition at x/c =  0.3927   41
 Side 2  free  transition at x/c =  0.1038   12

   3   rms: 0.3320E-04   max: 0.6862E-03   C at   41  1
       a =  0.300      CL =  0.4855
      Cm = -0.0955     CD =  0.00680   =>   CDf =  0.00573    CDp =  0.00107
      9.000    3.0937   0.006798   0.000000   0.000000   0.000000    0.3927     #

 Point added to stored polar  1
 Point written to save file  /home/nesd/tmp/dynamicas/python/users/a/ASTRO/r_
 Point written to dump file /home/nesd/tmp/dynamicas/python/users/a/ASTRO/r_
 Calculating wake trajectory ...
 Calculating source influence matrix ...

 Solving BL system ...

 Side 1  free  transition at x/c =  0.3927   41
 Side 2  free  transition at x/c =  0.1038   12

   1   rms: 0.3010E-01   max: -.5832E+00   C at   12  2   RLX: 0.857
       a =  0.400      CL =  0.4940
      Cm = -0.0953     CD =  0.00682   =>   CDf =  0.00573    CDp =  0.00110

 Side 1  free  transition at x/c =  0.3882   40
 Side 2  free  transition at x/c =  0.1074   13

   2   rms: 0.4736E-02   max: 0.8796E-01   C at   40  1
       a =  0.400      CL =  0.4957
      Cm = -0.0954     CD =  0.00681   =>   CDf =  0.00574    CDp =  0.00108

 Side 1  free  transition at x/c =  0.3870   40
 Side 2  free  transition at x/c =  0.1100   13

   3   rms: 0.9672E-03   max: -.1632E-01   D at   13  2
       a =  0.400      CL =  0.4957
      Cm = -0.0954     CD =  0.00681   =>   CDf =  0.00573    CDp =  0.00108

 Side 1  free  transition at x/c =  0.3870   40
 Side 2  free  transition at x/c =  0.1097   13

   4   rms: 0.6224E-05   max: -.9918E-04   D at   13  2
       a =  0.400      CL =  0.4957
      Cm = -0.0954     CD =  0.00681   =>   CDf =  0.00573    CDp =  0.00108
      9.000    3.1047   0.006812   0.000000   0.000000   0.000000    0.3870     #

 Point added to stored polar  1
 Point written to save file  /home/nesd/tmp/dynamicas/python/users/a/ASTRO/r_
 Point written to dump file /home/nesd/tmp/dynamicas/python/users/a/ASTRO/r_
 Calculating wake trajectory ...
 Calculating source influence matrix ...

 Solving BL system ...

 Side 1  free  transition at x/c =  0.3870   40
 Side 2  free  transition at x/c =  0.1097   13

   1   rms: 0.2798E-01   max: 0.3854E+00   C at   40  1
       a =  0.500      CL =  0.5059
      Cm = -0.0952     CD =  0.00681   =>   CDf =  0.00573    CDp =  0.00107

 Side 1  free  transition at x/c =  0.3766   39
 Side 2  free  transition at x/c =  0.1161   13

   2   rms: 0.8989E-02   max: -.1911E+00   C at   13  2
       a =  0.500      CL =  0.5055
      Cm = -0.0951     CD =  0.00684   =>   CDf =  0.00575    CDp =  0.00109

 Side 1  free  transition at x/c =  0.3779   39
 Side 2  free  transition at x/c =  0.1171   13

   3   rms: 0.1527E-03   max: 0.2826E-02   C at   39  1
       a =  0.500      CL =  0.5055
      Cm = -0.0951     CD =  0.00684   =>   CDf =  0.00574    CDp =  0.00110

 Side 1  free  transition at x/c =  0.3779   39
 Side 2  free  transition at x/c =  0.1172   13

   4   rms: 0.6286E-06   max: 0.6742E-05   C at   13  2
       a =  0.500      CL =  0.5055
      Cm = -0.0951     CD =  0.00684   =>   CDf =  0.00574    CDp =  0.00110
      9.000    3.1157   0.006839   0.000000   0.000000   0.000000    0.3779     #

 Point added to stored polar  1
 Point written to save file  /home/nesd/tmp/dynamicas/python/users/a/ASTRO/r_
 Point written to dump file /home/nesd/tmp/dynamicas/python/users/a/ASTRO/r_
 Calculating wake trajectory ...
 Calculating source influence matrix ...

 Solving BL system ...

 Side 1  free  transition at x/c =  0.3779   39
 Side 2  free  transition at x/c =  0.1172   13

   1   rms: 0.6402E-01   max: -.1573E+01   C at   13  2   RLX: 0.318
       a =  0.600      CL =  0.5086
      Cm = -0.0951     CD =  0.00685   =>   CDf =  0.00574    CDp =  0.00110

 Side 1  free  transition at x/c =  0.3757   39
 Side 2  free  transition at x/c =  0.1181   14

   2   rms: 0.2450E-01   max: 0.4759E+00   C at   39  1
       a =  0.600      CL =  0.5154
      Cm = -0.0949     CD =  0.00686   =>   CDf =  0.00575    CDp =  0.00111

 Side 1  free  transition at x/c =  0.3713   39
 Side 2  free  transition at x/c =  0.1233   14

   3   rms: 0.1421E-02   max: -.2471E-01   C at   14  2
       a =  0.600      CL =  0.5154
      Cm = -0.0949     CD =  0.00687   =>   CDf =  0.00575    CDp =  0.00111

 Side 1  free  transition at x/c =  0.3716   39
 Side 2  free  transition at x/c =  0.1238   14

   4   rms: 0.1080E-04   max: 0.1624E-03   C at   14  2
       a =  0.600      CL =  0.5154
      Cm = -0.0949     CD =  0.00687   =>   CDf =  0.00575    CDp =  0.00111
      9.000    3.1269   0.006865   0.000000   0.000000   0.000000    0.3716     #

 Point added to stored polar  1
 Point written to save file  /home/nesd/tmp/dynamicas/python/users/a/ASTRO/r_
 Point written to dump file /home/nesd/tmp/dynamicas/python/users/a/ASTRO/r_
 Calculating wake trajectory ...
 Calculating source influence matrix ...

 Solving BL system ...

 Side 1  free  transition at x/c =  0.3716   39
 Side 2  free  transition at x/c =  0.1238   14

   1   rms: 0.2221E-01   max: 0.3909E+00   C at   39  1
       a =  0.700      CL =  0.5254
      Cm = -0.0947     CD =  0.00691   =>   CDf =  0.00575    CDp =  0.00115

 Side 1  free  transition at x/c =  0.3671   38
 Side 2  free  transition at x/c =  0.1261   14

   2   rms: 0.1997E-02   max: 0.4947E-01   C at   38  1
       a =  0.700      CL =  0.5257
      Cm = -0.0948     CD =  0.00689   =>   CDf =  0.00576    CDp =  0.00113

 Side 1  free  transition at x/c =  0.3667   38
 Side 2  free  transition at x/c =  0.1263   14

   3   rms: 0.1664E-04   max: 0.4154E-03   C at   38  1
       a =  0.700      CL =  0.5257
      Cm = -0.0948     CD =  0.00689   =>   CDf =  0.00576    CDp =  0.00113
      9.000    3.1386   0.006892   0.000000   0.000000   0.000000    0.3667     #

 Point added to stored polar  1
 Point written to save file  /home/nesd/tmp/dynamicas/python/users/a/ASTRO/r_
 Point written to dump file /home/nesd/tmp/dynamicas/python/users/a/ASTRO/r_
 Calculating wake trajectory ...
 Calculating source influence matrix ...

 Solving BL system ...

 Side 1  free  transition at x/c =  0.3667   38
 Side 2  free  transition at x/c =  0.1263   14

   1   rms: 0.1698E-01   max: 0.3671E+00   C at   38  1
       a =  0.800      CL =  0.5362
      Cm = -0.0947     CD =  0.00691   =>   CDf =  0.00576    CDp =  0.00115

 Side 1  free  transition at x/c =  0.3587   38
 Side 2  free  transition at x/c =  0.1278   15

   2   rms: 0.3197E-02   max: 0.6224E-01   D at   38  1
       a =  0.800      CL =  0.5358
      Cm = -0.0946     CD =  0.00693   =>   CDf =  0.00579    CDp =  0.00114

 Side 1  free  transition at x/c =  0.3600   38
 Side 2  free  transition at x/c =  0.1281   15

   3   rms: 0.2837E-03   max: 0.5380E-02   C at   38  1
       a =  0.800      CL =  0.5358
      Cm = -0.0946     CD =  0.00693   =>   CDf =  0.00578    CDp =  0.00115

 Side 1  free  transition at x/c =  0.3599   38
 Side 2  free  transition at x/c =  0.1281   15

   4   rms: 0.2463E-05   max: 0.6135E-05   T at   83  2
       a =  0.800      CL =  0.5358
      Cm = -0.0946     CD =  0.00693   =>   CDf =  0.00578    CDp =  0.00115
      9.000    3.1504   0.006930   0.000000   0.000000   0.000000    0.3599     #

 Point added to stored polar  1
 Point written to save file  /home/nesd/tmp/dynamicas/python/users/a/ASTRO/r_
 Point written to dump file /home/nesd/tmp/dynamicas/python/users/a/ASTRO/r_
 Calculating wake trajectory ...
 Calculating source influence matrix ...

 Solving BL system ...

 Side 1  free  transition at x/c =  0.3599   38
 Side 2  free  transition at x/c =  0.1281   15

   1   rms: 0.2238E-01   max: 0.3881E+00   C at   38  1
       a =  0.900      CL =  0.5455
      Cm = -0.0944     CD =  0.00699   =>   CDf =  0.00578    CDp =  0.00120

 Side 1  free  transition at x/c =  0.3519   37
 Side 2  free  transition at x/c =  0.1313   15

   2   rms: 0.2029E-02   max: 0.3252E-01   D at   37  1
       a =  0.900      CL =  0.5457
      Cm = -0.0944     CD =  0.00697   =>   CDf =  0.00580    CDp =  0.00117

 Side 1  free  transition at x/c =  0.3523   37
 Side 2  free  transition at x/c =  0.1311   15

   3   rms: 0.6422E-05   max: -.1076E-03   D at   37  1
       a =  0.900      CL =  0.5457
      Cm = -0.0944     CD =  0.00697   =>   CDf =  0.00580    CDp =  0.00117
      9.000    3.1623   0.006970   0.000000   0.000000   0.000000    0.3523     #

 Point added to stored polar  1
 Point written to save file  /home/nesd/tmp/dynamicas/python/users/a/ASTRO/r_
 Point written to dump file /home/nesd/tmp/dynamicas/python/users/a/ASTRO/r_
 Calculating wake trajectory ...
 Calculating source influence matrix ...

 Solving BL system ...

 Side 1  free  transition at x/c =  0.3523   37
 Side 2  free  transition at x/c =  0.1311   15

   1   rms: 0.2766E-01   max: 0.6099E+00   C at   37  1
       a =  1.000      CL =  0.5555
      Cm = -0.0942     CD =  0.00702   =>   CDf =  0.00580    CDp =  0.00122

 Side 1  free  transition at x/c =  0.3441   36
 Side 2  free  transition at x/c =  0.1339   15

   2   rms: 0.1077E-02   max: -.1873E-01   C at   36  1
       a =  1.000      CL =  0.5555
      Cm = -0.0942     CD =  0.00702   =>   CDf =  0.00582    CDp =  0.00119

 Side 1  free  transition at x/c =  0.3444   36
 Side 2  free  transition at x/c =  0.1340   15

   3   rms: 0.1499E-04   max: -.3702E-03   C at   36  1
       a =  1.000      CL =  0.5555
      Cm = -0.0942     CD =  0.00702   =>   CDf =  0.00582    CDp =  0.00119
      9.000    3.1744   0.007016   0.000000   0.000000   0.000000    0.3444     #

 Point added to stored polar  1
 Point written to save file  /home/nesd/tmp/dynamicas/python/users/a/ASTRO/r_
 Point written to dump file /home/nesd/tmp/dynamicas/python/users/a/ASTRO/r_
 Calculating wake trajectory ...
 Calculating source influence matrix ...

 Solving BL system ...

 Side 1  free  transition at x/c =  0.3444   36
 Side 2  free  transition at x/c =  0.1340   15

   1   rms: 0.3134E-01   max: 0.7060E+00   C at   36  1
       a =  1.100      CL =  0.5655
      Cm = -0.0940     CD =  0.00706   =>   CDf =  0.00582    CDp =  0.00124

 Side 1  free  transition at x/c =  0.3361   35
 Side 2  free  transition at x/c =  0.1367   15

   2   rms: 0.2753E-02   max: -.6393E-01   C at   35  1
       a =  1.100      CL =  0.5653
      Cm = -0.0940     CD =  0.00707   =>   CDf =  0.00585    CDp =  0.00122

 Side 1  free  transition at x/c =  0.3366   35
 Side 2  free  transition at x/c =  0.1368   15

   3   rms: 0.1811E-04   max: 0.4363E-03   C at   35  1
       a =  1.100      CL =  0.5653
      Cm = -0.0940     CD =  0.00707   =>   CDf =  0.00585    CDp =  0.00122
      9.000    3.1867   0.007067   0.000000   0.000000   0.000000    0.3366     #

 Point added to stored polar  1
 Point written to save file  /home/nesd/tmp/dynamicas/python/users/a/ASTRO/r_
 Point written to dump file /home/nesd/tmp/dynamicas/python/users/a/ASTRO/r_
 Calculating wake trajectory ...
 Calculating source influence matrix ...

 Solving BL system ...

 Side 1  free  transition at x/c =  0.3366   35
 Side 2  free  transition at x/c =  0.1368   15

   1   rms: 0.3489E-01   max: 0.7385E+00   C at   35  1   RLX: 0.829
       a =  1.200      CL =  0.5737
      Cm = -0.0938     CD =  0.00710   =>   CDf =  0.00585    CDp =  0.00125

 Side 1  free  transition at x/c =  0.3307   35
 Side 2  free  transition at x/c =  0.1398   16

   2   rms: 0.6633E-02   max: -.1266E+00   C at   16  2
       a =  1.200      CL =  0.5752
      Cm = -0.0938     CD =  0.00710   =>   CDf =  0.00586    CDp =  0.00124

 Side 1  free  transition at x/c =  0.3301   35
 Side 2  free  transition at x/c =  0.1423   16

   3   rms: 0.1374E-03   max: -.2439E-02   D at   16  2
       a =  1.200      CL =  0.5752
      Cm = -0.0938     CD =  0.00710   =>   CDf =  0.00586    CDp =  0.00124

 Side 1  free  transition at x/c =  0.3301   35
 Side 2  free  transition at x/c =  0.1423   16

   4   rms: 0.2439E-05   max: -.4774E-04   C at   16  2
       a =  1.200      CL =  0.5752
      Cm = -0.0938     CD =  0.00710   =>   CDf =  0.00586    CDp =  0.00124
      9.000    3.1993   0.007103   0.000000   0.000000   0.000000    0.3301     #

 Point added to stored polar  1
 Point written to save file  /home/nesd/tmp/dynamicas/python/users/a/ASTRO/r_
 Point written to dump file /home/nesd/tmp/dynamicas/python/users/a/ASTRO/r_
 Calculating wake trajectory ...
 Calculating source influence matrix ...

 Solving BL system ...

 Side 1  free  transition at x/c =  0.3301   35
 Side 2  free  transition at x/c =  0.1423   16

   1   rms: 0.2235E-01   max: 0.3962E+00   C at   35  1
       a =  1.300      CL =  0.5849
      Cm = -0.0935     CD =  0.00716   =>   CDf =  0.00582    CDp =  0.00134

 Side 1  free  transition at x/c =  0.3245   35
 Side 2  free  transition at x/c =  0.1365   14

   2   rms: 0.1758E-01   max: -.5016E+00   C at   14  2   RLX: 0.997
       a =  1.300      CL =  0.5854
      Cm = -0.0936     CD =  0.00715   =>   CDf =  0.00587    CDp =  0.00128

 Side 1  free  transition at x/c =  0.3054   33
 Side 2  free  transition at x/c =  0.1370   14

   3   rms: 0.1409E-01   max: -.3703E+00   C at   33  1
       a =  1.300      CL =  0.5834
      Cm = -0.0932     CD =  0.00727   =>   CDf =  0.00596    CDp =  0.00131

 Side 1  free  transition at x/c =  0.3080   34
 Side 2  free  transition at x/c =  0.1366   14

   4   rms: 0.6770E-02   max: -.1754E+00   C at   14  2
       a =  1.300      CL =  0.5835
      Cm = -0.0933     CD =  0.00726   =>   CDf =  0.00595    CDp =  0.00131

 Side 1  free  transition at x/c =  0.3087   34
 Side 2  free  transition at x/c =  0.1367   14

   5   rms: 0.5965E-02   max: -.1688E+00   C at   14  2
       a =  1.300      CL =  0.5835
      Cm = -0.0933     CD =  0.00726   =>   CDf =  0.00594    CDp =  0.00132

 Side 1  free  transition at x/c =  0.3087   34
 Side 2  free  transition at x/c =  0.1367   14

   6   rms: 0.5977E-02   max: -.1692E+00   C at   14  2
       a =  1.300      CL =  0.5835
      Cm = -0.0933     CD =  0.00726   =>   CDf =  0.00594    CDp =  0.00132

 Side 1  free  transition at x/c =  0.3087   34
 Side 2  free  transition at x/c =  0.1367   14

   7   rms: 0.5977E-02   max: -.1692E+00   C at   14  2
       a =  1.300      CL =  0.5835
      Cm = -0.0933     CD =  0.00726   =>   CDf =  0.00594    CDp =  0.00132

 Side 1  free  transition at x/c =  0.3087   34
 Side 2  free  transition at x/c =  0.1367   14

   8   rms: 0.5977E-02   max: -.1692E+00   C at   14  2
       a =  1.300      CL =  0.5835
      Cm = -0.0933     CD =  0.00726   =>   CDf =  0.00594    CDp =  0.00132

 Side 1  free  transition at x/c =  0.3087   34
 Side 2  free  transition at x/c =  0.1367   14

   9   rms: 0.5977E-02   max: -.1692E+00   C at   14  2
       a =  1.300      CL =  0.5835
      Cm = -0.0933     CD =  0.00726   =>   CDf =  0.00594    CDp =  0.00132

 Side 1  free  transition at x/c =  0.3087   34
 Side 2  free  transition at x/c =  0.1367   14

  10   rms: 0.5977E-02   max: -.1692E+00   C at   14  2
       a =  1.300      CL =  0.5835
      Cm = -0.0933     CD =  0.00726   =>   CDf =  0.00594    CDp =  0.00132

 Side 1  free  transition at x/c =  0.3087   34
 Side 2  free  transition at x/c =  0.1367   14

  11   rms: 0.5977E-02   max: -.1692E+00   C at   14  2
       a =  1.300      CL =  0.5835
      Cm = -0.0933     CD =  0.00726   =>   CDf =  0.00594    CDp =  0.00132

 Side 1  free  transition at x/c =  0.3087   34
 Side 2  free  transition at x/c =  0.1367   14

  12   rms: 0.5977E-02   max: -.1692E+00   C at   14  2
       a =  1.300      CL =  0.5835
      Cm = -0.0933     CD =  0.00726   =>   CDf =  0.00594    CDp =  0.00132

 Side 1  free  transition at x/c =  0.3087   34
 Side 2  free  transition at x/c =  0.1367   14

  13   rms: 0.5977E-02   max: -.1692E+00   C at   14  2
       a =  1.300      CL =  0.5835
      Cm = -0.0933     CD =  0.00726   =>   CDf =  0.00594    CDp =  0.00132

 Side 1  free  transition at x/c =  0.3087   34
 Side 2  free  transition at x/c =  0.1367   14

  14   rms: 0.5977E-02   max: -.1692E+00   C at   14  2
       a =  1.300      CL =  0.5835
      Cm = -0.0933     CD =  0.00726   =>   CDf =  0.00594    CDp =  0.00132

 Side 1  free  transition at x/c =  0.3087   34
 Side 2  free  transition at x/c =  0.1367   14

  15   rms: 0.5977E-02   max: -.1692E+00   C at   14  2
       a =  1.300      CL =  0.5835
      Cm = -0.0933     CD =  0.00726   =>   CDf =  0.00594    CDp =  0.00132

 Side 1  free  transition at x/c =  0.3087   34
 Side 2  free  transition at x/c =  0.1367   14

  16   rms: 0.5977E-02   max: -.1692E+00   C at   14  2
       a =  1.300      CL =  0.5835
      Cm = -0.0933     CD =  0.00726   =>   CDf =  0.00594    CDp =  0.00132

 Side 1  free  transition at x/c =  0.3087   34
 Side 2  free  transition at x/c =  0.1367   14

  17   rms: 0.5977E-02   max: -.1692E+00   C at   14  2
       a =  1.300      CL =  0.5835
      Cm = -0.0933     CD =  0.00726   =>   CDf =  0.00594    CDp =  0.00132

 Side 1  free  transition at x/c =  0.3087   34
 Side 2  free  transition at x/c =  0.1367   14

  18   rms: 0.5977E-02   max: -.1692E+00   C at   14  2
       a =  1.300      CL =  0.5835
      Cm = -0.0933     CD =  0.00726   =>   CDf =  0.00594    CDp =  0.00132

 Side 1  free  transition at x/c =  0.3087   34
 Side 2  free  transition at x/c =  0.1367   14

  19   rms: 0.5977E-02   max: -.1692E+00   C at   14  2
       a =  1.300      CL =  0.5835
      Cm = -0.0933     CD =  0.00726   =>   CDf =  0.00594    CDp =  0.00132

 Side 1  free  transition at x/c =  0.3087   34
 Side 2  free  transition at x/c =  0.1367   14

  20   rms: 0.5977E-02   max: -.1692E+00   C at   14  2
       a =  1.300      CL =  0.5835
      Cm = -0.0933     CD =  0.00726   =>   CDf =  0.00594    CDp =  0.00132

 Side 1  free  transition at x/c =  0.3087   34
 Side 2  free  transition at x/c =  0.1367   14

  21   rms: 0.5977E-02   max: -.1692E+00   C at   14  2
       a =  1.300      CL =  0.5835
      Cm = -0.0933     CD =  0.00726   =>   CDf =  0.00594    CDp =  0.00132

 Side 1  free  transition at x/c =  0.3087   34
 Side 2  free  transition at x/c =  0.1367   14

  22   rms: 0.5977E-02   max: -.1692E+00   C at   14  2
       a =  1.300      CL =  0.5835
      Cm = -0.0933     CD =  0.00726   =>   CDf =  0.00594    CDp =  0.00132

 Side 1  free  transition at x/c =  0.3087   34
 Side 2  free  transition at x/c =  0.1367   14

  23   rms: 0.5977E-02   max: -.1692E+00   C at   14  2
       a =  1.300      CL =  0.5835
      Cm = -0.0933     CD =  0.00726   =>   CDf =  0.00594    CDp =  0.00132

 Side 1  free  transition at x/c =  0.3087   34
 Side 2  free  transition at x/c =  0.1367   14

  24   rms: 0.5977E-02   max: -.1692E+00   C at   14  2
       a =  1.300      CL =  0.5835
      Cm = -0.0933     CD =  0.00726   =>   CDf =  0.00594    CDp =  0.00132

 Side 1  free  transition at x/c =  0.3087   34
 Side 2  free  transition at x/c =  0.1367   14

  25   rms: 0.5977E-02   max: -.1692E+00   C at   14  2
       a =  1.300      CL =  0.5835
      Cm = -0.0933     CD =  0.00726   =>   CDf =  0.00594    CDp =  0.00132

 Side 1  free  transition at x/c =  0.3087   34
 Side 2  free  transition at x/c =  0.1367   14

  26   rms: 0.5977E-02   max: -.1692E+00   C at   14  2
       a =  1.300      CL =  0.5835
      Cm = -0.0933     CD =  0.00726   =>   CDf =  0.00594    CDp =  0.00132

 Side 1  free  transition at x/c =  0.3087   34
 Side 2  free  transition at x/c =  0.1367   14

  27   rms: 0.5977E-02   max: -.1692E+00   C at   14  2
       a =  1.300      CL =  0.5835
      Cm = -0.0933     CD =  0.00726   =>   CDf =  0.00594    CDp =  0.00132

 Side 1  free  transition at x/c =  0.3087   34
 Side 2  free  transition at x/c =  0.1367   14

  28   rms: 0.5977E-02   max: -.1692E+00   C at   14  2
       a =  1.300      CL =  0.5835
      Cm = -0.0933     CD =  0.00726   =>   CDf =  0.00594    CDp =  0.00132

 Side 1  free  transition at x/c =  0.3087   34
 Side 2  free  transition at x/c =  0.1367   14

  29   rms: 0.5977E-02   max: -.1692E+00   C at   14  2
       a =  1.300      CL =  0.5835
      Cm = -0.0933     CD =  0.00726   =>   CDf =  0.00594    CDp =  0.00132

 Side 1  free  transition at x/c =  0.3087   34
 Side 2  free  transition at x/c =  0.1367   14

  30   rms: 0.5977E-02   max: -.1692E+00   C at   14  2
       a =  1.300      CL =  0.5835
      Cm = -0.0933     CD =  0.00726   =>   CDf =  0.00594    CDp =  0.00132

 Side 1  free  transition at x/c =  0.3087   34
 Side 2  free  transition at x/c =  0.1367   14

  31   rms: 0.5977E-02   max: -.1692E+00   C at   14  2
       a =  1.300      CL =  0.5835
      Cm = -0.0933     CD =  0.00726   =>   CDf =  0.00594    CDp =  0.00132

 Side 1  free  transition at x/c =  0.3087   34
 Side 2  free  transition at x/c =  0.1367   14

  32   rms: 0.5977E-02   max: -.1692E+00   C at   14  2
       a =  1.300      CL =  0.5835
      Cm = -0.0933     CD =  0.00726   =>   CDf =  0.00594    CDp =  0.00132

 Side 1  free  transition at x/c =  0.3087   34
 Side 2  free  transition at x/c =  0.1367   14

  33   rms: 0.5977E-02   max: -.1692E+00   C at   14  2
       a =  1.300      CL =  0.5835
      Cm = -0.0933     CD =  0.00726   =>   CDf =  0.00594    CDp =  0.00132

 Side 1  free  transition at x/c =  0.3087   34
 Side 2  free  transition at x/c =  0.1367   14

  34   rms: 0.5977E-02   max: -.1692E+00   C at   14  2
       a =  1.300      CL =  0.5835
      Cm = -0.0933     CD =  0.00726   =>   CDf =  0.00594    CDp =  0.00132

 Side 1  free  transition at x/c =  0.3087   34
 Side 2  free  transition at x/c =  0.1367   14

  35   rms: 0.5977E-02   max: -.1692E+00   C at   14  2
       a =  1.300      CL =  0.5835
      Cm = -0.0933     CD =  0.00726   =>   CDf =  0.00594    CDp =  0.00132

 Side 1  free  transition at x/c =  0.3087   34
 Side 2  free  transition at x/c =  0.1367   14

  36   rms: 0.5977E-02   max: -.1692E+00   C at   14  2
       a =  1.300      CL =  0.5835
      Cm = -0.0933     CD =  0.00726   =>   CDf =  0.00594    CDp =  0.00132

 Side 1  free  transition at x/c =  0.3087   34
 Side 2  free  transition at x/c =  0.1367   14

  37   rms: 0.5977E-02   max: -.1692E+00   C at   14  2
       a =  1.300      CL =  0.5835
      Cm = -0.0933     CD =  0.00726   =>   CDf =  0.00594    CDp =  0.00132

 Side 1  free  transition at x/c =  0.3087   34
 Side 2  free  transition at x/c =  0.1367   14

  38   rms: 0.5977E-02   max: -.1692E+00   C at   14  2
       a =  1.300      CL =  0.5835
      Cm = -0.0933     CD =  0.00726   =>   CDf =  0.00594    CDp =  0.00132

 Side 1  free  transition at x/c =  0.3087   34
 Side 2  free  transition at x/c =  0.1367   14

  39   rms: 0.5977E-02   max: -.1692E+00   C at   14  2
       a =  1.300      CL =  0.5835
      Cm = -0.0933     CD =  0.00726   =>   CDf =  0.00594    CDp =  0.00132

 Side 1  free  transition at x/c =  0.3087   34
 Side 2  free  transition at x/c =  0.1367   14

  40   rms: 0.5977E-02   max: -.1692E+00   C at   14  2
       a =  1.300      CL =  0.5835
      Cm = -0.0933     CD =  0.00726   =>   CDf =  0.00594    CDp =  0.00132

 Side 1  free  transition at x/c =  0.3087   34
 Side 2  free  transition at x/c =  0.1367   14

  41   rms: 0.5977E-02   max: -.1692E+00   C at   14  2
       a =  1.300      CL =  0.5835
      Cm = -0.0933     CD =  0.00726   =>   CDf =  0.00594    CDp =  0.00132

 Side 1  free  transition at x/c =  0.3087   34
 Side 2  free  transition at x/c =  0.1367   14

  42   rms: 0.5977E-02   max: -.1692E+00   C at   14  2
       a =  1.300      CL =  0.5835
      Cm = -0.0933     CD =  0.00726   =>   CDf =  0.00594    CDp =  0.00132

 Side 1  free  transition at x/c =  0.3087   34
 Side 2  free  transition at x/c =  0.1367   14

  43   rms: 0.5977E-02   max: -.1692E+00   C at   14  2
       a =  1.300      CL =  0.5835
      Cm = -0.0933     CD =  0.00726   =>   CDf =  0.00594    CDp =  0.00132

 Side 1  free  transition at x/c =  0.3087   34
 Side 2  free  transition at x/c =  0.1367   14

  44   rms: 0.5977E-02   max: -.1692E+00   C at   14  2
       a =  1.300      CL =  0.5835
      Cm = -0.0933     CD =  0.00726   =>   CDf =  0.00594    CDp =  0.00132

 Side 1  free  transition at x/c =  0.3087   34
 Side 2  free  transition at x/c =  0.1367   14

  45   rms: 0.5977E-02   max: -.1692E+00   C at   14  2
       a =  1.300      CL =  0.5835
      Cm = -0.0933     CD =  0.00726   =>   CDf =  0.00594    CDp =  0.00132

 Side 1  free  transition at x/c =  0.3087   34
 Side 2  free  transition at x/c =  0.1367   14

  46   rms: 0.5977E-02   max: -.1692E+00   C at   14  2
       a =  1.300      CL =  0.5835
      Cm = -0.0933     CD =  0.00726   =>   CDf =  0.00594    CDp =  0.00132

 Side 1  free  transition at x/c =  0.3087   34
 Side 2  free  transition at x/c =  0.1367   14

  47   rms: 0.5977E-02   max: -.1692E+00   C at   14  2
       a =  1.300      CL =  0.5835
      Cm = -0.0933     CD =  0.00726   =>   CDf =  0.00594    CDp =  0.00132

 Side 1  free  transition at x/c =  0.3087   34
 Side 2  free  transition at x/c =  0.1367   14

  48   rms: 0.5977E-02   max: -.1692E+00   C at   14  2
       a =  1.300      CL =  0.5835
      Cm = -0.0933     CD =  0.00726   =>   CDf =  0.00594    CDp =  0.00132

 Side 1  free  transition at x/c =  0.3087   34
 Side 2  free  transition at x/c =  0.1367   14

  49   rms: 0.5977E-02   max: -.1692E+00   C at   14  2
       a =  1.300      CL =  0.5835
      Cm = -0.0933     CD =  0.00726   =>   CDf =  0.00594    CDp =  0.00132

 Side 1  free  transition at x/c =  0.3087   34
 Side 2  free  transition at x/c =  0.1367   14

  50   rms: 0.5977E-02   max: -.1692E+00   C at   14  2
       a =  1.300      CL =  0.5835
      Cm = -0.0933     CD =  0.00726   =>   CDf =  0.00594    CDp =  0.00132

 Side 1  free  transition at x/c =  0.3087   34
 Side 2  free  transition at x/c =  0.1367   14

  51   rms: 0.5977E-02   max: -.1692E+00   C at   14  2
       a =  1.300      CL =  0.5835
      Cm = -0.0933     CD =  0.00726   =>   CDf =  0.00594    CDp =  0.00132

 Side 1  free  transition at x/c =  0.3087   34
 Side 2  free  transition at x/c =  0.1367   14

  52   rms: 0.5977E-02   max: -.1692E+00   C at   14  2
       a =  1.300      CL =  0.5835
      Cm = -0.0933     CD =  0.00726   =>   CDf =  0.00594    CDp =  0.00132

 Side 1  free  transition at x/c =  0.3087   34
 Side 2  free  transition at x/c =  0.1367   14

  53   rms: 0.5977E-02   max: -.1692E+00   C at   14  2
       a =  1.300      CL =  0.5835
      Cm = -0.0933     CD =  0.00726   =>   CDf =  0.00594    CDp =  0.00132

 Side 1  free  transition at x/c =  0.3087   34
 Side 2  free  transition at x/c =  0.1367   14

  54   rms: 0.5977E-02   max: -.1692E+00   C at   14  2
       a =  1.300      CL =  0.5835
      Cm = -0.0933     CD =  0.00726   =>   CDf =  0.00594    CDp =  0.00132

 Side 1  free  transition at x/c =  0.3087   34
 Side 2  free  transition at x/c =  0.1367   14

  55   rms: 0.5977E-02   max: -.1692E+00   C at   14  2
       a =  1.300      CL =  0.5835
      Cm = -0.0933     CD =  0.00726   =>   CDf =  0.00594    CDp =  0.00132

 Side 1  free  transition at x/c =  0.3087   34
 Side 2  free  transition at x/c =  0.1367   14

  56   rms: 0.5977E-02   max: -.1692E+00   C at   14  2
       a =  1.300      CL =  0.5835
      Cm = -0.0933     CD =  0.00726   =>   CDf =  0.00594    CDp =  0.00132

 Side 1  free  transition at x/c =  0.3087   34
 Side 2  free  transition at x/c =  0.1367   14

  57   rms: 0.5977E-02   max: -.1692E+00   C at   14  2
       a =  1.300      CL =  0.5835
      Cm = -0.0933     CD =  0.00726   =>   CDf =  0.00594    CDp =  0.00132

 Side 1  free  transition at x/c =  0.3087   34
 Side 2  free  transition at x/c =  0.1367   14

  58   rms: 0.5977E-02   max: -.1692E+00   C at   14  2
       a =  1.300      CL =  0.5835
      Cm = -0.0933     CD =  0.00726   =>   CDf =  0.00594    CDp =  0.00132

 Side 1  free  transition at x/c =  0.3087   34
 Side 2  free  transition at x/c =  0.1367   14

  59   rms: 0.5977E-02   max: -.1692E+00   C at   14  2
       a =  1.300      CL =  0.5835
      Cm = -0.0933     CD =  0.00726   =>   CDf =  0.00594    CDp =  0.00132

 Side 1  free  transition at x/c =  0.3087   34
 Side 2  free  transition at x/c =  0.1367   14

  60   rms: 0.5977E-02   max: -.1692E+00   C at   14  2
       a =  1.300      CL =  0.5835
      Cm = -0.0933     CD =  0.00726   =>   CDf =  0.00594    CDp =  0.00132

 Side 1  free  transition at x/c =  0.3087   34
 Side 2  free  transition at x/c =  0.1367   14

  61   rms: 0.5977E-02   max: -.1692E+00   C at   14  2
       a =  1.300      CL =  0.5835
      Cm = -0.0933     CD =  0.00726   =>   CDf =  0.00594    CDp =  0.00132

 Side 1  free  transition at x/c =  0.3087   34
 Side 2  free  transition at x/c =  0.1367   14

  62   rms: 0.5977E-02   max: -.1692E+00   C at   14  2
       a =  1.300      CL =  0.5835
      Cm = -0.0933     CD =  0.00726   =>   CDf =  0.00594    CDp =  0.00132

 Side 1  free  transition at x/c =  0.3087   34
 Side 2  free  transition at x/c =  0.1367   14

  63   rms: 0.5977E-02   max: -.1692E+00   C at   14  2
       a =  1.300      CL =  0.5835
      Cm = -0.0933     CD =  0.00726   =>   CDf =  0.00594    CDp =  0.00132

 Side 1  free  transition at x/c =  0.3087   34
 Side 2  free  transition at x/c =  0.1367   14

  64   rms: 0.5977E-02   max: -.1692E+00   C at   14  2
       a =  1.300      CL =  0.5835
      Cm = -0.0933     CD =  0.00726   =>   CDf =  0.00594    CDp =  0.00132

 Side 1  free  transition at x/c =  0.3087   34
 Side 2  free  transition at x/c =  0.1367   14

  65   rms: 0.5977E-02   max: -.1692E+00   C at   14  2
       a =  1.300      CL =  0.5835
      Cm = -0.0933     CD =  0.00726   =>   CDf =  0.00594    CDp =  0.00132

 Side 1  free  transition at x/c =  0.3087   34
 Side 2  free  transition at x/c =  0.1367   14

  66   rms: 0.5977E-02   max: -.1692E+00   C at   14  2
       a =  1.300      CL =  0.5835
      Cm = -0.0933     CD =  0.00726   =>   CDf =  0.00594    CDp =  0.00132

 Side 1  free  transition at x/c =  0.3087   34
 Side 2  free  transition at x/c =  0.1367   14

  67   rms: 0.5977E-02   max: -.1692E+00   C at   14  2
       a =  1.300      CL =  0.5835
      Cm = -0.0933     CD =  0.00726   =>   CDf =  0.00594    CDp =  0.00132

 Side 1  free  transition at x/c =  0.3087   34
 Side 2  free  transition at x/c =  0.1367   14

  68   rms: 0.5977E-02   max: -.1692E+00   C at   14  2
       a =  1.300      CL =  0.5835
      Cm = -0.0933     CD =  0.00726   =>   CDf =  0.00594    CDp =  0.00132

 Side 1  free  transition at x/c =  0.3087   34
 Side 2  free  transition at x/c =  0.1367   14

  69   rms: 0.5977E-02   max: -.1692E+00   C at   14  2
       a =  1.300      CL =  0.5835
      Cm = -0.0933     CD =  0.00726   =>   CDf =  0.00594    CDp =  0.00132

 Side 1  free  transition at x/c =  0.3087   34
 Side 2  free  transition at x/c =  0.1367   14

  70   rms: 0.5977E-02   max: -.1692E+00   C at   14  2
       a =  1.300      CL =  0.5835
      Cm = -0.0933     CD =  0.00726   =>   CDf =  0.00594    CDp =  0.00132

 Side 1  free  transition at x/c =  0.3087   34
 Side 2  free  transition at x/c =  0.1367   14

  71   rms: 0.5977E-02   max: -.1692E+00   C at   14  2
       a =  1.300      CL =  0.5835
      Cm = -0.0933     CD =  0.00726   =>   CDf =  0.00594    CDp =  0.00132

 Side 1  free  transition at x/c =  0.3087   34
 Side 2  free  transition at x/c =  0.1367   14

  72   rms: 0.5977E-02   max: -.1692E+00   C at   14  2
       a =  1.300      CL =  0.5835
      Cm = -0.0933     CD =  0.00726   =>   CDf =  0.00594    CDp =  0.00132

 Side 1  free  transition at x/c =  0.3087   34
 Side 2  free  transition at x/c =  0.1367   14

  73   rms: 0.5977E-02   max: -.1692E+00   C at   14  2
       a =  1.300      CL =  0.5835
      Cm = -0.0933     CD =  0.00726   =>   CDf =  0.00594    CDp =  0.00132

 Side 1  free  transition at x/c =  0.3087   34
 Side 2  free  transition at x/c =  0.1367   14

  74   rms: 0.5977E-02   max: -.1692E+00   C at   14  2
       a =  1.300      CL =  0.5835
      Cm = -0.0933     CD =  0.00726   =>   CDf =  0.00594    CDp =  0.00132

 Side 1  free  transition at x/c =  0.3087   34
 Side 2  free  transition at x/c =  0.1367   14

  75   rms: 0.5977E-02   max: -.1692E+00   C at   14  2
       a =  1.300      CL =  0.5835
      Cm = -0.0933     CD =  0.00726   =>   CDf =  0.00594    CDp =  0.00132

 Side 1  free  transition at x/c =  0.3087   34
 Side 2  free  transition at x/c =  0.1367   14

  76   rms: 0.5977E-02   max: -.1692E+00   C at   14  2
       a =  1.300      CL =  0.5835
      Cm = -0.0933     CD =  0.00726   =>   CDf =  0.00594    CDp =  0.00132

 Side 1  free  transition at x/c =  0.3087   34
 Side 2  free  transition at x/c =  0.1367   14

  77   rms: 0.5977E-02   max: -.1692E+00   C at   14  2
       a =  1.300      CL =  0.5835
      Cm = -0.0933     CD =  0.00726   =>   CDf =  0.00594    CDp =  0.00132

 Side 1  free  transition at x/c =  0.3087   34
 Side 2  free  transition at x/c =  0.1367   14

  78   rms: 0.5977E-02   max: -.1692E+00   C at   14  2
       a =  1.300      CL =  0.5835
      Cm = -0.0933     CD =  0.00726   =>   CDf =  0.00594    CDp =  0.00132

 Side 1  free  transition at x/c =  0.3087   34
 Side 2  free  transition at x/c =  0.1367   14

  79   rms: 0.5977E-02   max: -.1692E+00   C at   14  2
       a =  1.300      CL =  0.5835
      Cm = -0.0933     CD =  0.00726   =>   CDf =  0.00594    CDp =  0.00132

 Side 1  free  transition at x/c =  0.3087   34
 Side 2  free  transition at x/c =  0.1367   14

  80   rms: 0.5977E-02   max: -.1692E+00   C at   14  2
       a =  1.300      CL =  0.5835
      Cm = -0.0933     CD =  0.00726   =>   CDf =  0.00594    CDp =  0.00132

 Side 1  free  transition at x/c =  0.3087   34
 Side 2  free  transition at x/c =  0.1367   14

  81   rms: 0.5977E-02   max: -.1692E+00   C at   14  2
       a =  1.300      CL =  0.5835
      Cm = -0.0933     CD =  0.00726   =>   CDf =  0.00594    CDp =  0.00132

 Side 1  free  transition at x/c =  0.3087   34
 Side 2  free  transition at x/c =  0.1367   14

  82   rms: 0.5977E-02   max: -.1692E+00   C at   14  2
       a =  1.300      CL =  0.5835
      Cm = -0.0933     CD =  0.00726   =>   CDf =  0.00594    CDp =  0.00132

 Side 1  free  transition at x/c =  0.3087   34
 Side 2  free  transition at x/c =  0.1367   14

  83   rms: 0.5977E-02   max: -.1692E+00   C at   14  2
       a =  1.300      CL =  0.5835
      Cm = -0.0933     CD =  0.00726   =>   CDf =  0.00594    CDp =  0.00132

 Side 1  free  transition at x/c =  0.3087   34
 Side 2  free  transition at x/c =  0.1367   14

  84   rms: 0.5977E-02   max: -.1692E+00   C at   14  2
       a =  1.300      CL =  0.5835
      Cm = -0.0933     CD =  0.00726   =>   CDf =  0.00594    CDp =  0.00132

 Side 1  free  transition at x/c =  0.3087   34
 Side 2  free  transition at x/c =  0.1367   14

  85   rms: 0.5977E-02   max: -.1692E+00   C at   14  2
       a =  1.300      CL =  0.5835
      Cm = -0.0933     CD =  0.00726   =>   CDf =  0.00594    CDp =  0.00132

 Side 1  free  transition at x/c =  0.3087   34
 Side 2  free  transition at x/c =  0.1367   14

  86   rms: 0.5977E-02   max: -.1692E+00   C at   14  2
       a =  1.300      CL =  0.5835
      Cm = -0.0933     CD =  0.00726   =>   CDf =  0.00594    CDp =  0.00132

 Side 1  free  transition at x/c =  0.3087   34
 Side 2  free  transition at x/c =  0.1367   14

  87   rms: 0.5977E-02   max: -.1692E+00   C at   14  2
       a =  1.300      CL =  0.5835
      Cm = -0.0933     CD =  0.00726   =>   CDf =  0.00594    CDp =  0.00132

 Side 1  free  transition at x/c =  0.3087   34
 Side 2  free  transition at x/c =  0.1367   14

  88   rms: 0.5977E-02   max: -.1692E+00   C at   14  2
       a =  1.300      CL =  0.5835
      Cm = -0.0933     CD =  0.00726   =>   CDf =  0.00594    CDp =  0.00132

 Side 1  free  transition at x/c =  0.3087   34
 Side 2  free  transition at x/c =  0.1367   14

  89   rms: 0.5977E-02   max: -.1692E+00   C at   14  2
       a =  1.300      CL =  0.5835
      Cm = -0.0933     CD =  0.00726   =>   CDf =  0.00594    CDp =  0.00132

 Side 1  free  transition at x/c =  0.3087   34
 Side 2  free  transition at x/c =  0.1367   14

  90   rms: 0.5977E-02   max: -.1692E+00   C at   14  2
       a =  1.300      CL =  0.5835
      Cm = -0.0933     CD =  0.00726   =>   CDf =  0.00594    CDp =  0.00132

 Side 1  free  transition at x/c =  0.3087   34
 Side 2  free  transition at x/c =  0.1367   14

  91   rms: 0.5977E-02   max: -.1692E+00   C at   14  2
       a =  1.300      CL =  0.5835
      Cm = -0.0933     CD =  0.00726   =>   CDf =  0.00594    CDp =  0.00132

 Side 1  free  transition at x/c =  0.3087   34
 Side 2  free  transition at x/c =  0.1367   14

  92   rms: 0.5977E-02   max: -.1692E+00   C at   14  2
       a =  1.300      CL =  0.5835
      Cm = -0.0933     CD =  0.00726   =>   CDf =  0.00594    CDp =  0.00132

 Side 1  free  transition at x/c =  0.3087   34
 Side 2  free  transition at x/c =  0.1367   14

  93   rms: 0.5977E-02   max: -.1692E+00   C at   14  2
       a =  1.300      CL =  0.5835
      Cm = -0.0933     CD =  0.00726   =>   CDf =  0.00594    CDp =  0.00132

 Side 1  free  transition at x/c =  0.3087   34
 Side 2  free  transition at x/c =  0.1367   14

  94   rms: 0.5977E-02   max: -.1692E+00   C at   14  2
       a =  1.300      CL =  0.5835
      Cm = -0.0933     CD =  0.00726   =>   CDf =  0.00594    CDp =  0.00132

 Side 1  free  transition at x/c =  0.3087   34
 Side 2  free  transition at x/c =  0.1367   14

  95   rms: 0.5977E-02   max: -.1692E+00   C at   14  2
       a =  1.300      CL =  0.5835
      Cm = -0.0933     CD =  0.00726   =>   CDf =  0.00594    CDp =  0.00132

 Side 1  free  transition at x/c =  0.3087   34
 Side 2  free  transition at x/c =  0.1367   14

  96   rms: 0.5977E-02   max: -.1692E+00   C at   14  2
       a =  1.300      CL =  0.5835
      Cm = -0.0933     CD =  0.00726   =>   CDf =  0.00594    CDp =  0.00132

 Side 1  free  transition at x/c =  0.3087   34
 Side 2  free  transition at x/c =  0.1367   14

  97   rms: 0.5977E-02   max: -.1692E+00   C at   14  2
       a =  1.300      CL =  0.5835
      Cm = -0.0933     CD =  0.00726   =>   CDf =  0.00594    CDp =  0.00132

 Side 1  free  transition at x/c =  0.3087   34
 Side 2  free  transition at x/c =  0.1367   14

  98   rms: 0.5977E-02   max: -.1692E+00   C at   14  2
       a =  1.300      CL =  0.5835
      Cm = -0.0933     CD =  0.00726   =>   CDf =  0.00594    CDp =  0.00132

 Side 1  free  transition at x/c =  0.3087   34
 Side 2  free  transition at x/c =  0.1367   14

  99   rms: 0.5977E-02   max: -.1692E+00   C at   14  2
       a =  1.300      CL =  0.5835
      Cm = -0.0933     CD =  0.00726   =>   CDf =  0.00594    CDp =  0.00132

 Side 1  free  transition at x/c =  0.3087   34
 Side 2  free  transition at x/c =  0.1367   14

 100   rms: 0.5977E-02   max: -.1692E+00   C at   14  2
       a =  1.300      CL =  0.5835
      Cm = -0.0933     CD =  0.00726   =>   CDf =  0.00594    CDp =  0.00132

 Side 1  free  transition at x/c =  0.3087   34
 Side 2  free  transition at x/c =  0.1367   14

 101   rms: 0.5977E-02   max: -.1692E+00   C at   14  2
       a =  1.300      CL =  0.5835
      Cm = -0.0933     CD =  0.00726   =>   CDf =  0.00594    CDp =  0.00132

 Side 1  free  transition at x/c =  0.3087   34
 Side 2  free  transition at x/c =  0.1367   14

 102   rms: 0.5977E-02   max: -.1692E+00   C at   14  2
       a =  1.300      CL =  0.5835
      Cm = -0.0933     CD =  0.00726   =>   CDf =  0.00594    CDp =  0.00132

 Side 1  free  transition at x/c =  0.3087   34
 Side 2  free  transition at x/c =  0.1367   14

 103   rms: 0.5977E-02   max: -.1692E+00   C at   14  2
       a =  1.300      CL =  0.5835
      Cm = -0.0933     CD =  0.00726   =>   CDf =  0.00594    CDp =  0.00132

 Side 1  free  transition at x/c =  0.3087   34
 Side 2  free  transition at x/c =  0.1367   14

 104   rms: 0.5977E-02   max: -.1692E+00   C at   14  2
       a =  1.300      CL =  0.5835
      Cm = -0.0933     CD =  0.00726   =>   CDf =  0.00594    CDp =  0.00132

 Side 1  free  transition at x/c =  0.3087   34
 Side 2  free  transition at x/c =  0.1367   14

 105   rms: 0.5977E-02   max: -.1692E+00   C at   14  2
       a =  1.300      CL =  0.5835
      Cm = -0.0933     CD =  0.00726   =>   CDf =  0.00594    CDp =  0.00132

 Side 1  free  transition at x/c =  0.3087   34
 Side 2  free  transition at x/c =  0.1367   14

 106   rms: 0.5977E-02   max: -.1692E+00   C at   14  2
       a =  1.300      CL =  0.5835
      Cm = -0.0933     CD =  0.00726   =>   CDf =  0.00594    CDp =  0.00132

 Side 1  free  transition at x/c =  0.3087   34
 Side 2  free  transition at x/c =  0.1367   14

 107   rms: 0.5977E-02   max: -.1692E+00   C at   14  2
       a =  1.300      CL =  0.5835
      Cm = -0.0933     CD =  0.00726   =>   CDf =  0.00594    CDp =  0.00132

 Side 1  free  transition at x/c =  0.3087   34
 Side 2  free  transition at x/c =  0.1367   14

 108   rms: 0.5977E-02   max: -.1692E+00   C at   14  2
       a =  1.300      CL =  0.5835
      Cm = -0.0933     CD =  0.00726   =>   CDf =  0.00594    CDp =  0.00132

 Side 1  free  transition at x/c =  0.3087   34
 Side 2  free  transition at x/c =  0.1367   14

 109   rms: 0.5977E-02   max: -.1692E+00   C at   14  2
       a =  1.300      CL =  0.5835
      Cm = -0.0933     CD =  0.00726   =>   CDf =  0.00594    CDp =  0.00132

 Side 1  free  transition at x/c =  0.3087   34
 Side 2  free  transition at x/c =  0.1367   14

 110   rms: 0.5977E-02   max: -.1692E+00   C at   14  2
       a =  1.300      CL =  0.5835
      Cm = -0.0933     CD =  0.00726   =>   CDf =  0.00594    CDp =  0.00132

 Side 1  free  transition at x/c =  0.3087   34
 Side 2  free  transition at x/c =  0.1367   14

 111   rms: 0.5977E-02   max: -.1692E+00   C at   14  2
       a =  1.300      CL =  0.5835
      Cm = -0.0933     CD =  0.00726   =>   CDf =  0.00594    CDp =  0.00132

 Side 1  free  transition at x/c =  0.3087   34
 Side 2  free  transition at x/c =  0.1367   14

 112   rms: 0.5977E-02   max: -.1692E+00   C at   14  2
       a =  1.300      CL =  0.5835
      Cm = -0.0933     CD =  0.00726   =>   CDf =  0.00594    CDp =  0.00132

 Side 1  free  transition at x/c =  0.3087   34
 Side 2  free  transition at x/c =  0.1367   14

 113   rms: 0.5977E-02   max: -.1692E+00   C at   14  2
       a =  1.300      CL =  0.5835
      Cm = -0.0933     CD =  0.00726   =>   CDf =  0.00594    CDp =  0.00132

 Side 1  free  transition at x/c =  0.3087   34
 Side 2  free  transition at x/c =  0.1367   14

 114   rms: 0.5977E-02   max: -.1692E+00   C at   14  2
       a =  1.300      CL =  0.5835
      Cm = -0.0933     CD =  0.00726   =>   CDf =  0.00594    CDp =  0.00132

 Side 1  free  transition at x/c =  0.3087   34
 Side 2  free  transition at x/c =  0.1367   14

 115   rms: 0.5977E-02   max: -.1692E+00   C at   14  2
       a =  1.300      CL =  0.5835
      Cm = -0.0933     CD =  0.00726   =>   CDf =  0.00594    CDp =  0.00132

 Side 1  free  transition at x/c =  0.3087   34
 Side 2  free  transition at x/c =  0.1367   14

 116   rms: 0.5977E-02   max: -.1692E+00   C at   14  2
       a =  1.300      CL =  0.5835
      Cm = -0.0933     CD =  0.00726   =>   CDf =  0.00594    CDp =  0.00132

 Side 1  free  transition at x/c =  0.3087   34
 Side 2  free  transition at x/c =  0.1367   14

 117   rms: 0.5977E-02   max: -.1692E+00   C at   14  2
       a =  1.300      CL =  0.5835
      Cm = -0.0933     CD =  0.00726   =>   CDf =  0.00594    CDp =  0.00132

 Side 1  free  transition at x/c =  0.3087   34
 Side 2  free  transition at x/c =  0.1367   14

 118   rms: 0.5977E-02   max: -.1692E+00   C at   14  2
       a =  1.300      CL =  0.5835
      Cm = -0.0933     CD =  0.00726   =>   CDf =  0.00594    CDp =  0.00132

 Side 1  free  transition at x/c =  0.3087   34
 Side 2  free  transition at x/c =  0.1367   14

 119   rms: 0.5977E-02   max: -.1692E+00   C at   14  2
       a =  1.300      CL =  0.5835
      Cm = -0.0933     CD =  0.00726   =>   CDf =  0.00594    CDp =  0.00132

 Side 1  free  transition at x/c =  0.3087   34
 Side 2  free  transition at x/c =  0.1367   14

 120   rms: 0.5977E-02   max: -.1692E+00   C at   14  2
       a =  1.300      CL =  0.5835
      Cm = -0.0933     CD =  0.00726   =>   CDf =  0.00594    CDp =  0.00132

[...]
       a =  8.300      CL =  1.2592
      Cm = -0.0794     CD =  0.01114   =>   CDf =  0.00540    CDp =  0.00575

 Side 1  free  transition at x/c =  0.0219    5
 Side 2 forced transition at x/c =  1.0000  101

 436   rms: 0.1633E+00   max: -.3014E+01   D at    5  1   RLX: 0.166
       a =  8.300      CL =  1.2556
      Cm = -0.0783     CD =  0.01152   =>   CDf =  0.00550    CDp =  0.00602

 Side 1  free  transition at x/c =  0.0186    5
 Side 2 forced transition at x/c =  1.0000  101

 437   rms: 0.2473E+00   max: -.3766E+01   D at    4  1   RLX: 0.133
       a =  8.300      CL =  1.2593
      Cm = -0.0790     CD =  0.01126   =>   CDf =  0.00553    CDp =  0.00573

 Side 1  free  transition at x/c =  0.0329    6
 Side 2 forced transition at x/c =  1.0000  101

 438   rms: 0.4079E-01   max: -.5834E+00   D at    6  1   RLX: 0.857
       a =  8.300      CL =  1.2592
      Cm = -0.0794     CD =  0.01114   =>   CDf =  0.00540    CDp =  0.00575

 Side 1  free  transition at x/c =  0.0219    5
 Side 2 forced transition at x/c =  1.0000  101

 439   rms: 0.1633E+00   max: -.3014E+01   D at    5  1   RLX: 0.166
       a =  8.300      CL =  1.2556
      Cm = -0.0783     CD =  0.01152   =>   CDf =  0.00550    CDp =  0.00602

 Side 1  free  transition at x/c =  0.0186    5
 Side 2 forced transition at x/c =  1.0000  101

 440   rms: 0.2473E+00   max: -.3766E+01   D at    4  1   RLX: 0.133
       a =  8.300      CL =  1.2593
      Cm = -0.0790     CD =  0.01126   =>   CDf =  0.00553    CDp =  0.00573

 Side 1  free  transition at x/c =  0.0329    6
 Side 2 forced transition at x/c =  1.0000  101

 441   rms: 0.4079E-01   max: -.5834E+00   D at    6  1   RLX: 0.857
       a =  8.300      CL =  1.2592
      Cm = -0.0794     CD =  0.01114   =>   CDf =  0.00540    CDp =  0.00575

 Side 1  free  transition at x/c =  0.0219    5
 Side 2 forced transition at x/c =  1.0000  101

 442   rms: 0.1633E+00   max: -.3014E+01   D at    5  1   RLX: 0.166
       a =  8.300      CL =  1.2556
      Cm = -0.0783     CD =  0.01152   =>   CDf =  0.00550    CDp =  0.00602

 Side 1  free  transition at x/c =  0.0186    5
 Side 2 forced transition at x/c =  1.0000  101

 443   rms: 0.2473E+00   max: -.3766E+01   D at    4  1   RLX: 0.133
       a =  8.300      CL =  1.2593
      Cm = -0.0790     CD =  0.01126   =>   CDf =  0.00553    CDp =  0.00573

 Side 1  free  transition at x/c =  0.0329    6
 Side 2 forced transition at x/c =  1.0000  101

 444   rms: 0.4079E-01   max: -.5834E+00   D at    6  1   RLX: 0.857
       a =  8.300      CL =  1.2592
      Cm = -0.0794     CD =  0.01114   =>   CDf =  0.00540    CDp =  0.00575

 Side 1  free  transition at x/c =  0.0219    5
 Side 2 forced transition at x/c =  1.0000  101

 445   rms: 0.1633E+00   max: -.3014E+01   D at    5  1   RLX: 0.166
       a =  8.300      CL =  1.2556
      Cm = -0.0783     CD =  0.01152   =>   CDf =  0.00550    CDp =  0.00602

 Side 1  free  transition at x/c =  0.0186    5
 Side 2 forced transition at x/c =  1.0000  101

 446   rms: 0.2473E+00   max: -.3766E+01   D at    4  1   RLX: 0.133
       a =  8.300      CL =  1.2593
      Cm = -0.0790     CD =  0.01126   =>   CDf =  0.00553    CDp =  0.00573

 Side 1  free  transition at x/c =  0.0329    6
 Side 2 forced transition at x/c =  1.0000  101

 447   rms: 0.4079E-01   max: -.5834E+00   D at    6  1   RLX: 0.857
       a =  8.300      CL =  1.2592
      Cm = -0.0794     CD =  0.01114   =>   CDf =  0.00540    CDp =  0.00575

 Side 1  free  transition at x/c =  0.0219    5
 Side 2 forced transition at x/c =  1.0000  101

 448   rms: 0.1633E+00   max: -.3014E+01   D at    5  1   RLX: 0.166
       a =  8.300      CL =  1.2556
      Cm = -0.0783     CD =  0.01152   =>   CDf =  0.00550    CDp =  0.00602

 Side 1  free  transition at x/c =  0.0186    5
 Side 2 forced transition at x/c =  1.0000  101

 449   rms: 0.2473E+00   max: -.3766E+01   D at    4  1   RLX: 0.133
       a =  8.300      CL =  1.2593
      Cm = -0.0790     CD =  0.01126   =>   CDf =  0.00553    CDp =  0.00573

 Side 1  free  transition at x/c =  0.0329    6
 Side 2 forced transition at x/c =  1.0000  101

 450   rms: 0.4079E-01   max: -.5834E+00   D at    6  1   RLX: 0.857
       a =  8.300      CL =  1.2592
      Cm = -0.0794     CD =  0.01114   =>   CDf =  0.00540    CDp =  0.00575

 Side 1  free  transition at x/c =  0.0219    5
 Side 2 forced transition at x/c =  1.0000  101

 451   rms: 0.1633E+00   max: -.3014E+01   D at    5  1   RLX: 0.166
       a =  8.300      CL =  1.2556
      Cm = -0.0783     CD =  0.01152   =>   CDf =  0.00550    CDp =  0.00602

 Side 1  free  transition at x/c =  0.0186    5
 Side 2 forced transition at x/c =  1.0000  101

 452   rms: 0.2473E+00   max: -.3766E+01   D at    4  1   RLX: 0.133
       a =  8.300      CL =  1.2593
      Cm = -0.0790     CD =  0.01126   =>   CDf =  0.00553    CDp =  0.00573

 Side 1  free  transition at x/c =  0.0329    6
 Side 2 forced transition at x/c =  1.0000  101

 453   rms: 0.4079E-01   max: -.5834E+00   D at    6  1   RLX: 0.857
       a =  8.300      CL =  1.2592
      Cm = -0.0794     CD =  0.01114   =>   CDf =  0.00540    CDp =  0.00575

 Side 1  free  transition at x/c =  0.0219    5
 Side 2 forced transition at x/c =  1.0000  101

 454   rms: 0.1633E+00   max: -.3014E+01   D at    5  1   RLX: 0.166
       a =  8.300      CL =  1.2556
      Cm = -0.0783     CD =  0.01152   =>   CDf =  0.00550    CDp =  0.00602

 Side 1  free  transition at x/c =  0.0186    5
 Side 2 forced transition at x/c =  1.0000  101

 455   rms: 0.2473E+00   max: -.3766E+01   D at    4  1   RLX: 0.133
       a =  8.300      CL =  1.2593
      Cm = -0.0790     CD =  0.01126   =>   CDf =  0.00553    CDp =  0.00573

 Side 1  free  transition at x/c =  0.0329    6
 Side 2 forced transition at x/c =  1.0000  101

 456   rms: 0.4079E-01   max: -.5834E+00   D at    6  1   RLX: 0.857
       a =  8.300      CL =  1.2592
      Cm = -0.0794     CD =  0.01114   =>   CDf =  0.00540    CDp =  0.00575

 Side 1  free  transition at x/c =  0.0219    5
 Side 2 forced transition at x/c =  1.0000  101

 457   rms: 0.1633E+00   max: -.3014E+01   D at    5  1   RLX: 0.166
       a =  8.300      CL =  1.2556
      Cm = -0.0783     CD =  0.01152   =>   CDf =  0.00550    CDp =  0.00602

 Side 1  free  transition at x/c =  0.0186    5
 Side 2 forced transition at x/c =  1.0000  101

 458   rms: 0.2473E+00   max: -.3766E+01   D at    4  1   RLX: 0.133
       a =  8.300      CL =  1.2593
      Cm = -0.0790     CD =  0.01126   =>   CDf =  0.00553    CDp =  0.00573

 Side 1  free  transition at x/c =  0.0329    6
 Side 2 forced transition at x/c =  1.0000  101

 459   rms: 0.4079E-01   max: -.5834E+00   D at    6  1   RLX: 0.857
       a =  8.300      CL =  1.2592
      Cm = -0.0794     CD =  0.01114   =>   CDf =  0.00540    CDp =  0.00575

 Side 1  free  transition at x/c =  0.0219    5
 Side 2 forced transition at x/c =  1.0000  101

 460   rms: 0.1633E+00   max: -.3014E+01   D at    5  1   RLX: 0.166
       a =  8.300      CL =  1.2556
      Cm = -0.0783     CD =  0.01152   =>   CDf =  0.00550    CDp =  0.00602

 Side 1  free  transition at x/c =  0.0186    5
 Side 2 forced transition at x/c =  1.0000  101

 461   rms: 0.2473E+00   max: -.3766E+01   D at    4  1   RLX: 0.133
       a =  8.300      CL =  1.2593
      Cm = -0.0790     CD =  0.01126   =>   CDf =  0.00553    CDp =  0.00573

 Side 1  free  transition at x/c =  0.0329    6
 Side 2 forced transition at x/c =  1.0000  101

 462   rms: 0.4079E-01   max: -.5834E+00   D at    6  1   RLX: 0.857
       a =  8.300      CL =  1.2592
      Cm = -0.0794     CD =  0.01114   =>   CDf =  0.00540    CDp =  0.00575

 Side 1  free  transition at x/c =  0.0219    5
 Side 2 forced transition at x/c =  1.0000  101

 463   rms: 0.1633E+00   max: -.3014E+01   D at    5  1   RLX: 0.166
       a =  8.300      CL =  1.2556
      Cm = -0.0783     CD =  0.01152   =>   CDf =  0.00550    CDp =  0.00602

 Side 1  free  transition at x/c =  0.0186    5
 Side 2 forced transition at x/c =  1.0000  101

 464   rms: 0.2473E+00   max: -.3766E+01   D at    4  1   RLX: 0.133
       a =  8.300      CL =  1.2593
      Cm = -0.0790     CD =  0.01126   =>   CDf =  0.00553    CDp =  0.00573

 Side 1  free  transition at x/c =  0.0329    6
 Side 2 forced transition at x/c =  1.0000  101

 465   rms: 0.4079E-01   max: -.5834E+00   D at    6  1   RLX: 0.857
       a =  8.300      CL =  1.2592
      Cm = -0.0794     CD =  0.01114   =>   CDf =  0.00540    CDp =  0.00575

 Side 1  free  transition at x/c =  0.0219    5
 Side 2 forced transition at x/c =  1.0000  101

 466   rms: 0.1633E+00   max: -.3014E+01   D at    5  1   RLX: 0.166
       a =  8.300      CL =  1.2556
      Cm = -0.0783     CD =  0.01152   =>   CDf =  0.00550    CDp =  0.00602

 Side 1  free  transition at x/c =  0.0186    5
 Side 2 forced transition at x/c =  1.0000  101

 467   rms: 0.2473E+00   max: -.3766E+01   D at    4  1   RLX: 0.133
       a =  8.300      CL =  1.2593
      Cm = -0.0790     CD =  0.01126   =>   CDf =  0.00553    CDp =  0.00573

 Side 1  free  transition at x/c =  0.0329    6
 Side 2 forced transition at x/c =  1.0000  101

 468   rms: 0.4079E-01   max: -.5834E+00   D at    6  1   RLX: 0.857
       a =  8.300      CL =  1.2592
      Cm = -0.0794     CD =  0.01114   =>   CDf =  0.00540    CDp =  0.00575

 Side 1  free  transition at x/c =  0.0219    5
 Side 2 forced transition at x/c =  1.0000  101

 469   rms: 0.1633E+00   max: -.3014E+01   D at    5  1   RLX: 0.166
       a =  8.300      CL =  1.2556
      Cm = -0.0783     CD =  0.01152   =>   CDf =  0.00550    CDp =  0.00602

 Side 1  free  transition at x/c =  0.0186    5
 Side 2 forced transition at x/c =  1.0000  101

 470   rms: 0.2473E+00   max: -.3766E+01   D at    4  1   RLX: 0.133
       a =  8.300      CL =  1.2593
      Cm = -0.0790     CD =  0.01126   =>   CDf =  0.00553    CDp =  0.00573

 Side 1  free  transition at x/c =  0.0329    6
 Side 2 forced transition at x/c =  1.0000  101

 471   rms: 0.4079E-01   max: -.5834E+00   D at    6  1   RLX: 0.857
       a =  8.300      CL =  1.2592
      Cm = -0.0794     CD =  0.01114   =>   CDf =  0.00540    CDp =  0.00575

 Side 1  free  transition at x/c =  0.0219    5
 Side 2 forced transition at x/c =  1.0000  101

 472   rms: 0.1633E+00   max: -.3014E+01   D at    5  1   RLX: 0.166
       a =  8.300      CL =  1.2556
      Cm = -0.0783     CD =  0.01152   =>   CDf =  0.00550    CDp =  0.00602

 Side 1  free  transition at x/c =  0.0186    5
 Side 2 forced transition at x/c =  1.0000  101

 473   rms: 0.2473E+00   max: -.3766E+01   D at    4  1   RLX: 0.133
       a =  8.300      CL =  1.2593
      Cm = -0.0790     CD =  0.01126   =>   CDf =  0.00553    CDp =  0.00573

 Side 1  free  transition at x/c =  0.0329    6
 Side 2 forced transition at x/c =  1.0000  101

 474   rms: 0.4079E-01   max: -.5834E+00   D at    6  1   RLX: 0.857
       a =  8.300      CL =  1.2592
      Cm = -0.0794     CD =  0.01114   =>   CDf =  0.00540    CDp =  0.00575

 Side 1  free  transition at x/c =  0.0219    5
 Side 2 forced transition at x/c =  1.0000  101

 475   rms: 0.1633E+00   max: -.3014E+01   D at    5  1   RLX: 0.166
       a =  8.300      CL =  1.2556
      Cm = -0.0783     CD =  0.01152   =>   CDf =  0.00550    CDp =  0.00602

 Side 1  free  transition at x/c =  0.0186    5
 Side 2 forced transition at x/c =  1.0000  101

 476   rms: 0.2473E+00   max: -.3766E+01   D at    4  1   RLX: 0.133
       a =  8.300      CL =  1.2593
      Cm = -0.0790     CD =  0.01126   =>   CDf =  0.00553    CDp =  0.00573

 Side 1  free  transition at x/c =  0.0329    6
 Side 2 forced transition at x/c =  1.0000  101

 477   rms: 0.4079E-01   max: -.5834E+00   D at    6  1   RLX: 0.857
       a =  8.300      CL =  1.2592
      Cm = -0.0794     CD =  0.01114   =>   CDf =  0.00540    CDp =  0.00575

 Side 1  free  transition at x/c =  0.0219    5
 Side 2 forced transition at x/c =  1.0000  101

 478   rms: 0.1633E+00   max: -.3014E+01   D at    5  1   RLX: 0.166
       a =  8.300      CL =  1.2556
      Cm = -0.0783     CD =  0.01152   =>   CDf =  0.00550    CDp =  0.00602

 Side 1  free  transition at x/c =  0.0186    5
 Side 2 forced transition at x/c =  1.0000  101

 479   rms: 0.2473E+00   max: -.3766E+01   D at    4  1   RLX: 0.133
       a =  8.300      CL =  1.2593
      Cm = -0.0790     CD =  0.01126   =>   CDf =  0.00553    CDp =  0.00573

 Side 1  free  transition at x/c =  0.0329    6
 Side 2 forced transition at x/c =  1.0000  101

 480   rms: 0.4079E-01   max: -.5834E+00   D at    6  1   RLX: 0.857
       a =  8.300      CL =  1.2592
      Cm = -0.0794     CD =  0.01114   =>   CDf =  0.00540    CDp =  0.00575

 Side 1  free  transition at x/c =  0.0219    5
 Side 2 forced transition at x/c =  1.0000  101

 481   rms: 0.1633E+00   max: -.3014E+01   D at    5  1   RLX: 0.166
       a =  8.300      CL =  1.2556
      Cm = -0.0783     CD =  0.01152   =>   CDf =  0.00550    CDp =  0.00602

 Side 1  free  transition at x/c =  0.0186    5
 Side 2 forced transition at x/c =  1.0000  101

 482   rms: 0.2473E+00   max: -.3766E+01   D at    4  1   RLX: 0.133
       a =  8.300      CL =  1.2593
      Cm = -0.0790     CD =  0.01126   =>   CDf =  0.00553    CDp =  0.00573

 Side 1  free  transition at x/c =  0.0329    6
 Side 2 forced transition at x/c =  1.0000  101

 483   rms: 0.4079E-01   max: -.5834E+00   D at    6  1   RLX: 0.857
       a =  8.300      CL =  1.2592
      Cm = -0.0794     CD =  0.01114   =>   CDf =  0.00540    CDp =  0.00575

 Side 1  free  transition at x/c =  0.0219    5
 Side 2 forced transition at x/c =  1.0000  101

 484   rms: 0.1633E+00   max: -.3014E+01   D at    5  1   RLX: 0.166
       a =  8.300      CL =  1.2556
      Cm = -0.0783     CD =  0.01152   =>   CDf =  0.00550    CDp =  0.00602

 Side 1  free  transition at x/c =  0.0186    5
 Side 2 forced transition at x/c =  1.0000  101

 485   rms: 0.2473E+00   max: -.3766E+01   D at    4  1   RLX: 0.133
       a =  8.300      CL =  1.2593
      Cm = -0.0790     CD =  0.01126   =>   CDf =  0.00553    CDp =  0.00573

 Side 1  free  transition at x/c =  0.0329    6
 Side 2 forced transition at x/c =  1.0000  101

 486   rms: 0.4079E-01   max: -.5834E+00   D at    6  1   RLX: 0.857
       a =  8.300      CL =  1.2592
      Cm = -0.0794     CD =  0.01114   =>   CDf =  0.00540    CDp =  0.00575

 Side 1  free  transition at x/c =  0.0219    5
 Side 2 forced transition at x/c =  1.0000  101

 487   rms: 0.1633E+00   max: -.3014E+01   D at    5  1   RLX: 0.166
       a =  8.300      CL =  1.2556
      Cm = -0.0783     CD =  0.01152   =>   CDf =  0.00550    CDp =  0.00602

 Side 1  free  transition at x/c =  0.0186    5
 Side 2 forced transition at x/c =  1.0000  101

 488   rms: 0.2473E+00   max: -.3766E+01   D at    4  1   RLX: 0.133
       a =  8.300      CL =  1.2593
      Cm = -0.0790     CD =  0.01126   =>   CDf =  0.00553    CDp =  0.00573

 Side 1  free  transition at x/c =  0.0329    6
 Side 2 forced transition at x/c =  1.0000  101

 489   rms: 0.4079E-01   max: -.5834E+00   D at    6  1   RLX: 0.857
       a =  8.300      CL =  1.2592
      Cm = -0.0794     CD =  0.01114   =>   CDf =  0.00540    CDp =  0.00575

 Side 1  free  transition at x/c =  0.0219    5
 Side 2 forced transition at x/c =  1.0000  101

 490   rms: 0.1633E+00   max: -.3014E+01   D at    5  1   RLX: 0.166
       a =  8.300      CL =  1.2556
      Cm = -0.0783     CD =  0.01152   =>   CDf =  0.00550    CDp =  0.00602

 Side 1  free  transition at x/c =  0.0186    5
 Side 2 forced transition at x/c =  1.0000  101

 491   rms: 0.2473E+00   max: -.3766E+01   D at    4  1   RLX: 0.133
       a =  8.300      CL =  1.2593
      Cm = -0.0790     CD =  0.01126   =>   CDf =  0.00553    CDp =  0.00573

 Side 1  free  transition at x/c =  0.0329    6
 Side 2 forced transition at x/c =  1.0000  101

 492   rms: 0.4079E-01   max: -.5834E+00   D at    6  1   RLX: 0.857
       a =  8.300      CL =  1.2592
      Cm = -0.0794     CD =  0.01114   =>   CDf =  0.00540    CDp =  0.00575

 Side 1  free  transition at x/c =  0.0219    5
 Side 2 forced transition at x/c =  1.0000  101

 493   rms: 0.1633E+00   max: -.3014E+01   D at    5  1   RLX: 0.166
       a =  8.300      CL =  1.2556
      Cm = -0.0783     CD =  0.01152   =>   CDf =  0.00550    CDp =  0.00602

 Side 1  free  transition at x/c =  0.0186    5
 Side 2 forced transition at x/c =  1.0000  101

 494   rms: 0.2473E+00   max: -.3766E+01   D at    4  1   RLX: 0.133
       a =  8.300      CL =  1.2593
      Cm = -0.0790     CD =  0.01126   =>   CDf =  0.00553    CDp =  0.00573

 Side 1  free  transition at x/c =  0.0329    6
 Side 2 forced transition at x/c =  1.0000  101

 495   rms: 0.4079E-01   max: -.5834E+00   D at    6  1   RLX: 0.857
       a =  8.300      CL =  1.2592
      Cm = -0.0794     CD =  0.01114   =>   CDf =  0.00540    CDp =  0.00575

 Side 1  free  transition at x/c =  0.0219    5
 Side 2 forced transition at x/c =  1.0000  101

 496   rms: 0.1633E+00   max: -.3014E+01   D at    5  1   RLX: 0.166
       a =  8.300      CL =  1.2556
      Cm = -0.0783     CD =  0.01152   =>   CDf =  0.00550    CDp =  0.00602

 Side 1  free  transition at x/c =  0.0186    5
 Side 2 forced transition at x/c =  1.0000  101

 497   rms: 0.2473E+00   max: -.3766E+01   D at    4  1   RLX: 0.133
       a =  8.300      CL =  1.2593
      Cm = -0.0790     CD =  0.01126   =>   CDf =  0.00553    CDp =  0.00573

 Side 1  free  transition at x/c =  0.0329    6
 Side 2 forced transition at x/c =  1.0000  101

 498   rms: 0.4079E-01   max: -.5834E+00   D at    6  1   RLX: 0.857
       a =  8.300      CL =  1.2592
      Cm = -0.0794     CD =  0.01114   =>   CDf =  0.00540    CDp =  0.00575

 Side 1  free  transition at x/c =  0.0219    5
 Side 2 forced transition at x/c =  1.0000  101

 499   rms: 0.1633E+00   max: -.3014E+01   D at    5  1   RLX: 0.166
       a =  8.300      CL =  1.2556
      Cm = -0.0783     CD =  0.01152   =>   CDf =  0.00550    CDp =  0.00602

 Side 1  free  transition at x/c =  0.0186    5
 Side 2 forced transition at x/c =  1.0000  101

 500   rms: 0.2473E+00   max: -.3766E+01   D at    4  1   RLX: 0.133
       a =  8.300      CL =  1.2593
      Cm = -0.0790     CD =  0.01126   =>   CDf =  0.00553    CDp =  0.00573

 Side 1  free  transition at x/c =  0.0329    6
 Side 2 forced transition at x/c =  1.0000  101

 501   rms: 0.4079E-01   max: -.5834E+00   D at    6  1   RLX: 0.857
       a =  8.300      CL =  1.2592
      Cm = -0.0794     CD =  0.01114   =>   CDf =  0.00540    CDp =  0.00575

 Side 1  free  transition at x/c =  0.0219    5
 Side 2 forced transition at x/c =  1.0000  101

 502   rms: 0.1633E+00   max: -.3014E+01   D at    5  1   RLX: 0.166
       a =  8.300      CL =  1.2556
      Cm = -0.0783     CD =  0.01152   =>   CDf =  0.00550    CDp =  0.00602

 Side 1  free  transition at x/c =  0.0186    5
 Side 2 forced transition at x/c =  1.0000  101

 503   rms: 0.2473E+00   max: -.3766E+01   D at    4  1   RLX: 0.133
       a =  8.300      CL =  1.2593
      Cm = -0.0790     CD =  0.01126   =>   CDf =  0.00553    CDp =  0.00573

 Side 1  free  transition at x/c =  0.0329    6
 Side 2 forced transition at x/c =  1.0000  101

 504   rms: 0.4079E-01   max: -.5834E+00   D at    6  1   RLX: 0.857
       a =  8.300      CL =  1.2592
      Cm = -0.0794     CD =  0.01114   =>   CDf =  0.00540    CDp =  0.00575

 Side 1  free  transition at x/c =  0.0219    5
 Side 2 forced transition at x/c =  1.0000  101

 505   rms: 0.1633E+00   max: -.3014E+01   D at    5  1   RLX: 0.166
       a =  8.300      CL =  1.2556
      Cm = -0.0783     CD =  0.01152   =>   CDf =  0.00550    CDp =  0.00602
 VISCAL:  Convergence failed
      9.000    4.8623   0.011521   0.000320   0.000385   0.000064    0.0219     #

 Sequence halted since previous  4 points did not converge
 Last-converged  alpha =   7.900    CL =   1.20769

.OPERva   c>  
 XFOIL   c>  